<routes>
  <vType id="type_0" length="5.0" width="2.0" accel="2.0" decel="4.5" minGap="2.5" maxSpeed="11.11" tau="2.0" emergencyDecel="4.5"/>
  <trip id="vehicle_0" depart="1" from="road_1_0_1" to="road_1_1_1" color="cyan" type="type_0" begin="1" end="1" period="5"/>
  <vType id="type_1" length="5.0" width="2.0" accel="2.0" decel="4.5" minGap="2.5" maxSpeed="11.11" tau="2.0" emergencyDecel="4.5"/>
  <trip id="vehicle_1" depart="1" from="road_1_0_1" to="road_1_1_1" color="cyan" type="type_1" begin="1" end="1" period="5"/>
  <vType id="type_2" length="5.0" width="2.0" accel="2.0" decel="4.5" minGap="2.5" maxSpeed="11.11" tau="2.0" emergencyDecel="4.5"/>
  <trip id="vehicle_2" depart="1" from="road_1_0_1" to="road_1_1_2" color="cyan" type="type_2" begin="1" end="1" period="5"/>
  <vType id="type_3" length="5.0" width="2.0" accel="2.0" decel="4.5" minGap="2.5" maxSpeed="11.11" tau="2.0" emergencyDecel="4.5"/>
  <trip id="vehicle_3" depart="1" from="road_1_2_3" to="road_1_1_3" color="cyan" type="type_3" begin="1" end="1" period="5"/>
  <vType id="type_4" length="5.0" width="2.0" accel="2.0" decel="4.5" minGap="2.5" maxSpeed="11.11" tau="2.0" emergencyDecel="4.5"/>
  <trip id="vehicle_4" depart="3" from="road_1_0_1" to="road_1_1_1" color="cyan" type="type_4" begin="3" end="3" period="5"/>
  <vType id="type_5" length="5.0" width="2.0" accel="2.0" decel="4.5" minGap="2.5" maxSpeed="11.11" tau="2.0" emergencyDecel="4.5"/>
  <trip id="vehicle_5" depart="18" from="road_2_1_2" to="road_1_1_2" color="cyan" type="type_5" begin="18" end="18" period="5"/>
  <vType id="type_6" length="5.0" width="2.0" accel="2.0" decel="4.5" minGap="2.5" maxSpeed="11.11" tau="2.0" emergencyDecel="4.5"/>
  <trip id="vehicle_6" depart="19" from="road_1_0_1" to="road_1_1_1" color="cyan" type="type_6" begin="19" end="19" period="5"/>
  <vType id="type_7" length="5.0" width="2.0" accel="2.0" decel="4.5" minGap="2.5" maxSpeed="11.11" tau="2.0" emergencyDecel="4.5"/>
  <trip id="vehicle_7" depart="20" from="road_1_2_3" to="road_1_1_3" color="cyan" type="type_7" begin="20" end="20" period="5"/>
  <vType id="type_8" length="5.0" width="2.0" accel="2.0" decel="4.5" minGap="2.5" maxSpeed="11.11" tau="2.0" emergencyDecel="4.5"/>
  <trip id="vehicle_8" depart="29" from="road_1_0_1" to="road_1_1_1" color="cyan" type="type_8" begin="29" end="29" period="5"/>
  <vType id="type_9" length="5.0" width="2.0" accel="2.0" decel="4.5" minGap="2.5" maxSpeed="11.11" tau="2.0" emergencyDecel="4.5"/>
  <trip id="vehicle_9" depart="29" from="road_2_1_2" to="road_1_1_2" color="cyan" type="type_9" begin="29" end="29" period="5"/>
  <vType id="type_10" length="5.0" width="2.0" accel="2.0" decel="4.5" minGap="2.5" maxSpeed="11.11" tau="2.0" emergencyDecel="4.5"/>
  <trip id="vehicle_10" depart="30" from="road_0_1_0" to="road_1_1_0" color="cyan" type="type_10" begin="30" end="30" period="5"/>
  <vType id="type_11" length="5.0" width="2.0" accel="2.0" decel="4.5" minGap="2.5" maxSpeed="11.11" tau="2.0" emergencyDecel="4.5"/>
  <trip id="vehicle_11" depart="31" from="road_1_0_1" to="road_1_1_1" color="cyan" type="type_11" begin="31" end="31" period="5"/>
  <vType id="type_12" length="5.0" width="2.0" accel="2.0" decel="4.5" minGap="2.5" maxSpeed="11.11" tau="2.0" emergencyDecel="4.5"/>
  <trip id="vehicle_12" depart="32" from="road_0_1_0" to="road_1_1_0" color="cyan" type="type_12" begin="32" end="32" period="5"/>
  <vType id="type_13" length="5.0" width="2.0" accel="2.0" decel="4.5" minGap="2.5" maxSpeed="11.11" tau="2.0" emergencyDecel="4.5"/>
  <trip id="vehicle_13" depart="38" from="road_2_1_2" to="road_1_1_2" color="cyan" type="type_13" begin="38" end="38" period="5"/>
  <vType id="type_14" length="5.0" width="2.0" accel="2.0" decel="4.5" minGap="2.5" maxSpeed="11.11" tau="2.0" emergencyDecel="4.5"/>
  <trip id="vehicle_14" depart="38" from="road_2_1_2" to="road_1_1_3" color="cyan" type="type_14" begin="38" end="38" period="5"/>
  <vType id="type_15" length="5.0" width="2.0" accel="2.0" decel="4.5" minGap="2.5" maxSpeed="11.11" tau="2.0" emergencyDecel="4.5"/>
  <trip id="vehicle_15" depart="38" from="road_1_0_1" to="road_1_1_1" color="cyan" type="type_15" begin="38" end="38" period="5"/>
  <vType id="type_16" length="5.0" width="2.0" accel="2.0" decel="4.5" minGap="2.5" maxSpeed="11.11" tau="2.0" emergencyDecel="4.5"/>
  <trip id="vehicle_16" depart="62" from="road_0_1_0" to="road_1_1_0" color="cyan" type="type_16" begin="62" end="62" period="5"/>
  <vType id="type_17" length="5.0" width="2.0" accel="2.0" decel="4.5" minGap="2.5" maxSpeed="11.11" tau="2.0" emergencyDecel="4.5"/>
  <trip id="vehicle_17" depart="65" from="road_0_1_0" to="road_1_1_0" color="cyan" type="type_17" begin="65" end="65" period="5"/>
  <vType id="type_18" length="5.0" width="2.0" accel="2.0" decel="4.5" minGap="2.5" maxSpeed="11.11" tau="2.0" emergencyDecel="4.5"/>
  <trip id="vehicle_18" depart="70" from="road_0_1_0" to="road_1_1_0" color="cyan" type="type_18" begin="70" end="70" period="5"/>
  <vType id="type_19" length="5.0" width="2.0" accel="2.0" decel="4.5" minGap="2.5" maxSpeed="11.11" tau="2.0" emergencyDecel="4.5"/>
  <trip id="vehicle_19" depart="71" from="road_0_1_0" to="road_1_1_0" color="cyan" type="type_19" begin="71" end="71" period="5"/>
  <vType id="type_20" length="5.0" width="2.0" accel="2.0" decel="4.5" minGap="2.5" maxSpeed="11.11" tau="2.0" emergencyDecel="4.5"/>
  <trip id="vehicle_20" depart="72" from="road_0_1_0" to="road_1_1_0" color="cyan" type="type_20" begin="72" end="72" period="5"/>
  <vType id="type_21" length="5.0" width="2.0" accel="2.0" decel="4.5" minGap="2.5" maxSpeed="11.11" tau="2.0" emergencyDecel="4.5"/>
  <trip id="vehicle_21" depart="77" from="road_1_0_1" to="road_1_1_1" color="cyan" type="type_21" begin="77" end="77" period="5"/>
  <vType id="type_22" length="5.0" width="2.0" accel="2.0" decel="4.5" minGap="2.5" maxSpeed="11.11" tau="2.0" emergencyDecel="4.5"/>
  <trip id="vehicle_22" depart="77" from="road_2_1_2" to="road_1_1_2" color="cyan" type="type_22" begin="77" end="77" period="5"/>
  <vType id="type_23" length="5.0" width="2.0" accel="2.0" decel="4.5" minGap="2.5" maxSpeed="11.11" tau="2.0" emergencyDecel="4.5"/>
  <trip id="vehicle_23" depart="80" from="road_0_1_0" to="road_1_1_0" color="cyan" type="type_23" begin="80" end="80" period="5"/>
  <vType id="type_24" length="5.0" width="2.0" accel="2.0" decel="4.5" minGap="2.5" maxSpeed="11.11" tau="2.0" emergencyDecel="4.5"/>
  <trip id="vehicle_24" depart="80" from="road_2_1_2" to="road_1_1_2" color="cyan" type="type_24" begin="80" end="80" period="5"/>
  <vType id="type_25" length="5.0" width="2.0" accel="2.0" decel="4.5" minGap="2.5" maxSpeed="11.11" tau="2.0" emergencyDecel="4.5"/>
  <trip id="vehicle_25" depart="80" from="road_2_1_2" to="road_1_1_3" color="cyan" type="type_25" begin="80" end="80" period="5"/>
  <vType id="type_26" length="5.0" width="2.0" accel="2.0" decel="4.5" minGap="2.5" maxSpeed="11.11" tau="2.0" emergencyDecel="4.5"/>
  <trip id="vehicle_26" depart="81" from="road_0_1_0" to="road_1_1_0" color="cyan" type="type_26" begin="81" end="81" period="5"/>
  <vType id="type_27" length="5.0" width="2.0" accel="2.0" decel="4.5" minGap="2.5" maxSpeed="11.11" tau="2.0" emergencyDecel="4.5"/>
  <trip id="vehicle_27" depart="81" from="road_0_1_0" to="road_1_1_0" color="cyan" type="type_27" begin="81" end="81" period="5"/>
  <vType id="type_28" length="5.0" width="2.0" accel="2.0" decel="4.5" minGap="2.5" maxSpeed="11.11" tau="2.0" emergencyDecel="4.5"/>
  <trip id="vehicle_28" depart="83" from="road_2_1_2" to="road_1_1_2" color="cyan" type="type_28" begin="83" end="83" period="5"/>
  <vType id="type_29" length="5.0" width="2.0" accel="2.0" decel="4.5" minGap="2.5" maxSpeed="11.11" tau="2.0" emergencyDecel="4.5"/>
  <trip id="vehicle_29" depart="83" from="road_2_1_2" to="road_1_1_3" color="cyan" type="type_29" begin="83" end="83" period="5"/>
  <vType id="type_30" length="5.0" width="2.0" accel="2.0" decel="4.5" minGap="2.5" maxSpeed="11.11" tau="2.0" emergencyDecel="4.5"/>
  <trip id="vehicle_30" depart="85" from="road_0_1_0" to="road_1_1_0" color="cyan" type="type_30" begin="85" end="85" period="5"/>
  <vType id="type_31" length="5.0" width="2.0" accel="2.0" decel="4.5" minGap="2.5" maxSpeed="11.11" tau="2.0" emergencyDecel="4.5"/>
  <trip id="vehicle_31" depart="90" from="road_1_2_3" to="road_1_1_3" color="cyan" type="type_31" begin="90" end="90" period="5"/>
  <vType id="type_32" length="5.0" width="2.0" accel="2.0" decel="4.5" minGap="2.5" maxSpeed="11.11" tau="2.0" emergencyDecel="4.5"/>
  <trip id="vehicle_32" depart="91" from="road_2_1_2" to="road_1_1_2" color="cyan" type="type_32" begin="91" end="91" period="5"/>
  <vType id="type_33" length="5.0" width="2.0" accel="2.0" decel="4.5" minGap="2.5" maxSpeed="11.11" tau="2.0" emergencyDecel="4.5"/>
  <trip id="vehicle_33" depart="93" from="road_2_1_2" to="road_1_1_2" color="cyan" type="type_33" begin="93" end="93" period="5"/>
  <vType id="type_34" length="5.0" width="2.0" accel="2.0" decel="4.5" minGap="2.5" maxSpeed="11.11" tau="2.0" emergencyDecel="4.5"/>
  <trip id="vehicle_34" depart="96" from="road_0_1_0" to="road_1_1_0" color="cyan" type="type_34" begin="96" end="96" period="5"/>
  <vType id="type_35" length="5.0" width="2.0" accel="2.0" decel="4.5" minGap="2.5" maxSpeed="11.11" tau="2.0" emergencyDecel="4.5"/>
  <trip id="vehicle_35" depart="97" from="road_0_1_0" to="road_1_1_0" color="cyan" type="type_35" begin="97" end="97" period="5"/>
  <vType id="type_36" length="5.0" width="2.0" accel="2.0" decel="4.5" minGap="2.5" maxSpeed="11.11" tau="2.0" emergencyDecel="4.5"/>
  <trip id="vehicle_36" depart="99" from="road_0_1_0" to="road_1_1_0" color="cyan" type="type_36" begin="99" end="99" period="5"/>
  <vType id="type_37" length="5.0" width="2.0" accel="2.0" decel="4.5" minGap="2.5" maxSpeed="11.11" tau="2.0" emergencyDecel="4.5"/>
  <trip id="vehicle_37" depart="104" from="road_0_1_0" to="road_1_1_0" color="cyan" type="type_37" begin="104" end="104" period="5"/>
  <vType id="type_38" length="5.0" width="2.0" accel="2.0" decel="4.5" minGap="2.5" maxSpeed="11.11" tau="2.0" emergencyDecel="4.5"/>
  <trip id="vehicle_38" depart="105" from="road_0_1_0" to="road_1_1_0" color="cyan" type="type_38" begin="105" end="105" period="5"/>
  <vType id="type_39" length="5.0" width="2.0" accel="2.0" decel="4.5" minGap="2.5" maxSpeed="11.11" tau="2.0" emergencyDecel="4.5"/>
  <trip id="vehicle_39" depart="107" from="road_0_1_0" to="road_1_1_0" color="cyan" type="type_39" begin="107" end="107" period="5"/>
  <vType id="type_40" length="5.0" width="2.0" accel="2.0" decel="4.5" minGap="2.5" maxSpeed="11.11" tau="2.0" emergencyDecel="4.5"/>
  <trip id="vehicle_40" depart="112" from="road_2_1_2" to="road_1_1_2" color="cyan" type="type_40" begin="112" end="112" period="5"/>
  <vType id="type_41" length="5.0" width="2.0" accel="2.0" decel="4.5" minGap="2.5" maxSpeed="11.11" tau="2.0" emergencyDecel="4.5"/>
  <trip id="vehicle_41" depart="113" from="road_0_1_0" to="road_1_1_0" color="cyan" type="type_41" begin="113" end="113" period="5"/>
  <vType id="type_42" length="5.0" width="2.0" accel="2.0" decel="4.5" minGap="2.5" maxSpeed="11.11" tau="2.0" emergencyDecel="4.5"/>
  <trip id="vehicle_42" depart="115" from="road_0_1_0" to="road_1_1_0" color="cyan" type="type_42" begin="115" end="115" period="5"/>
  <vType id="type_43" length="5.0" width="2.0" accel="2.0" decel="4.5" minGap="2.5" maxSpeed="11.11" tau="2.0" emergencyDecel="4.5"/>
  <trip id="vehicle_43" depart="115" from="road_2_1_2" to="road_1_1_2" color="cyan" type="type_43" begin="115" end="115" period="5"/>
  <vType id="type_44" length="5.0" width="2.0" accel="2.0" decel="4.5" minGap="2.5" maxSpeed="11.11" tau="2.0" emergencyDecel="4.5"/>
  <trip id="vehicle_44" depart="120" from="road_1_0_1" to="road_1_1_1" color="cyan" type="type_44" begin="120" end="120" period="5"/>
  <vType id="type_45" length="5.0" width="2.0" accel="2.0" decel="4.5" minGap="2.5" maxSpeed="11.11" tau="2.0" emergencyDecel="4.5"/>
  <trip id="vehicle_45" depart="126" from="road_1_0_1" to="road_1_1_1" color="cyan" type="type_45" begin="126" end="126" period="5"/>
  <vType id="type_46" length="5.0" width="2.0" accel="2.0" decel="4.5" minGap="2.5" maxSpeed="11.11" tau="2.0" emergencyDecel="4.5"/>
  <trip id="vehicle_46" depart="129" from="road_0_1_0" to="road_1_1_0" color="cyan" type="type_46" begin="129" end="129" period="5"/>
  <vType id="type_47" length="5.0" width="2.0" accel="2.0" decel="4.5" minGap="2.5" maxSpeed="11.11" tau="2.0" emergencyDecel="4.5"/>
  <trip id="vehicle_47" depart="129" from="road_0_1_0" to="road_1_1_1" color="cyan" type="type_47" begin="129" end="129" period="5"/>
  <vType id="type_48" length="5.0" width="2.0" accel="2.0" decel="4.5" minGap="2.5" maxSpeed="11.11" tau="2.0" emergencyDecel="4.5"/>
  <trip id="vehicle_48" depart="132" from="road_1_0_1" to="road_1_1_1" color="cyan" type="type_48" begin="132" end="132" period="5"/>
  <vType id="type_49" length="5.0" width="2.0" accel="2.0" decel="4.5" minGap="2.5" maxSpeed="11.11" tau="2.0" emergencyDecel="4.5"/>
  <trip id="vehicle_49" depart="132" from="road_0_1_0" to="road_1_1_0" color="cyan" type="type_49" begin="132" end="132" period="5"/>
  <vType id="type_50" length="5.0" width="2.0" accel="2.0" decel="4.5" minGap="2.5" maxSpeed="11.11" tau="2.0" emergencyDecel="4.5"/>
  <trip id="vehicle_50" depart="135" from="road_0_1_0" to="road_1_1_0" color="cyan" type="type_50" begin="135" end="135" period="5"/>
  <vType id="type_51" length="5.0" width="2.0" accel="2.0" decel="4.5" minGap="2.5" maxSpeed="11.11" tau="2.0" emergencyDecel="4.5"/>
  <trip id="vehicle_51" depart="138" from="road_2_1_2" to="road_1_1_2" color="cyan" type="type_51" begin="138" end="138" period="5"/>
  <vType id="type_52" length="5.0" width="2.0" accel="2.0" decel="4.5" minGap="2.5" maxSpeed="11.11" tau="2.0" emergencyDecel="4.5"/>
  <trip id="vehicle_52" depart="141" from="road_0_1_0" to="road_1_1_0" color="cyan" type="type_52" begin="141" end="141" period="5"/>
  <vType id="type_53" length="5.0" width="2.0" accel="2.0" decel="4.5" minGap="2.5" maxSpeed="11.11" tau="2.0" emergencyDecel="4.5"/>
  <trip id="vehicle_53" depart="142" from="road_2_1_2" to="road_1_1_2" color="cyan" type="type_53" begin="142" end="142" period="5"/>
  <vType id="type_54" length="5.0" width="2.0" accel="2.0" decel="4.5" minGap="2.5" maxSpeed="11.11" tau="2.0" emergencyDecel="4.5"/>
  <trip id="vehicle_54" depart="144" from="road_1_2_3" to="road_1_1_3" color="cyan" type="type_54" begin="144" end="144" period="5"/>
  <vType id="type_55" length="5.0" width="2.0" accel="2.0" decel="4.5" minGap="2.5" maxSpeed="11.11" tau="2.0" emergencyDecel="4.5"/>
  <trip id="vehicle_55" depart="151" from="road_1_0_1" to="road_1_1_1" color="cyan" type="type_55" begin="151" end="151" period="5"/>
  <vType id="type_56" length="5.0" width="2.0" accel="2.0" decel="4.5" minGap="2.5" maxSpeed="11.11" tau="2.0" emergencyDecel="4.5"/>
  <trip id="vehicle_56" depart="151" from="road_1_0_1" to="road_1_1_1" color="cyan" type="type_56" begin="151" end="151" period="5"/>
  <vType id="type_57" length="5.0" width="2.0" accel="2.0" decel="4.5" minGap="2.5" maxSpeed="11.11" tau="2.0" emergencyDecel="4.5"/>
  <trip id="vehicle_57" depart="154" from="road_1_2_3" to="road_1_1_3" color="cyan" type="type_57" begin="154" end="154" period="5"/>
  <vType id="type_58" length="5.0" width="2.0" accel="2.0" decel="4.5" minGap="2.5" maxSpeed="11.11" tau="2.0" emergencyDecel="4.5"/>
  <trip id="vehicle_58" depart="158" from="road_1_0_1" to="road_1_1_1" color="cyan" type="type_58" begin="158" end="158" period="5"/>
  <vType id="type_59" length="5.0" width="2.0" accel="2.0" decel="4.5" minGap="2.5" maxSpeed="11.11" tau="2.0" emergencyDecel="4.5"/>
  <trip id="vehicle_59" depart="160" from="road_1_2_3" to="road_1_1_3" color="cyan" type="type_59" begin="160" end="160" period="5"/>
  <vType id="type_60" length="5.0" width="2.0" accel="2.0" decel="4.5" minGap="2.5" maxSpeed="11.11" tau="2.0" emergencyDecel="4.5"/>
  <trip id="vehicle_60" depart="163" from="road_0_1_0" to="road_1_1_0" color="cyan" type="type_60" begin="163" end="163" period="5"/>
  <vType id="type_61" length="5.0" width="2.0" accel="2.0" decel="4.5" minGap="2.5" maxSpeed="11.11" tau="2.0" emergencyDecel="4.5"/>
  <trip id="vehicle_61" depart="170" from="road_1_2_3" to="road_1_1_3" color="cyan" type="type_61" begin="170" end="170" period="5"/>
  <vType id="type_62" length="5.0" width="2.0" accel="2.0" decel="4.5" minGap="2.5" maxSpeed="11.11" tau="2.0" emergencyDecel="4.5"/>
  <trip id="vehicle_62" depart="174" from="road_2_1_2" to="road_1_1_2" color="cyan" type="type_62" begin="174" end="174" period="5"/>
  <vType id="type_63" length="5.0" width="2.0" accel="2.0" decel="4.5" minGap="2.5" maxSpeed="11.11" tau="2.0" emergencyDecel="4.5"/>
  <trip id="vehicle_63" depart="180" from="road_1_0_1" to="road_1_1_1" color="cyan" type="type_63" begin="180" end="180" period="5"/>
  <vType id="type_64" length="5.0" width="2.0" accel="2.0" decel="4.5" minGap="2.5" maxSpeed="11.11" tau="2.0" emergencyDecel="4.5"/>
  <trip id="vehicle_64" depart="181" from="road_1_0_1" to="road_1_1_1" color="cyan" type="type_64" begin="181" end="181" period="5"/>
  <vType id="type_65" length="5.0" width="2.0" accel="2.0" decel="4.5" minGap="2.5" maxSpeed="11.11" tau="2.0" emergencyDecel="4.5"/>
  <trip id="vehicle_65" depart="182" from="road_2_1_2" to="road_1_1_2" color="cyan" type="type_65" begin="182" end="182" period="5"/>
  <vType id="type_66" length="5.0" width="2.0" accel="2.0" decel="4.5" minGap="2.5" maxSpeed="11.11" tau="2.0" emergencyDecel="4.5"/>
  <trip id="vehicle_66" depart="183" from="road_1_2_3" to="road_1_1_3" color="cyan" type="type_66" begin="183" end="183" period="5"/>
  <vType id="type_67" length="5.0" width="2.0" accel="2.0" decel="4.5" minGap="2.5" maxSpeed="11.11" tau="2.0" emergencyDecel="4.5"/>
  <trip id="vehicle_67" depart="194" from="road_1_2_3" to="road_1_1_3" color="cyan" type="type_67" begin="194" end="194" period="5"/>
  <vType id="type_68" length="5.0" width="2.0" accel="2.0" decel="4.5" minGap="2.5" maxSpeed="11.11" tau="2.0" emergencyDecel="4.5"/>
  <trip id="vehicle_68" depart="202" from="road_1_2_3" to="road_1_1_3" color="cyan" type="type_68" begin="202" end="202" period="5"/>
  <vType id="type_69" length="5.0" width="2.0" accel="2.0" decel="4.5" minGap="2.5" maxSpeed="11.11" tau="2.0" emergencyDecel="4.5"/>
  <trip id="vehicle_69" depart="202" from="road_1_2_3" to="road_1_1_0" color="cyan" type="type_69" begin="202" end="202" period="5"/>
  <vType id="type_70" length="5.0" width="2.0" accel="2.0" decel="4.5" minGap="2.5" maxSpeed="11.11" tau="2.0" emergencyDecel="4.5"/>
  <trip id="vehicle_70" depart="202" from="road_1_2_3" to="road_1_1_3" color="cyan" type="type_70" begin="202" end="202" period="5"/>
  <vType id="type_71" length="5.0" width="2.0" accel="2.0" decel="4.5" minGap="2.5" maxSpeed="11.11" tau="2.0" emergencyDecel="4.5"/>
  <trip id="vehicle_71" depart="206" from="road_2_1_2" to="road_1_1_2" color="cyan" type="type_71" begin="206" end="206" period="5"/>
  <vType id="type_72" length="5.0" width="2.0" accel="2.0" decel="4.5" minGap="2.5" maxSpeed="11.11" tau="2.0" emergencyDecel="4.5"/>
  <trip id="vehicle_72" depart="212" from="road_0_1_0" to="road_1_1_0" color="cyan" type="type_72" begin="212" end="212" period="5"/>
  <vType id="type_73" length="5.0" width="2.0" accel="2.0" decel="4.5" minGap="2.5" maxSpeed="11.11" tau="2.0" emergencyDecel="4.5"/>
  <trip id="vehicle_73" depart="216" from="road_2_1_2" to="road_1_1_2" color="cyan" type="type_73" begin="216" end="216" period="5"/>
  <vType id="type_74" length="5.0" width="2.0" accel="2.0" decel="4.5" minGap="2.5" maxSpeed="11.11" tau="2.0" emergencyDecel="4.5"/>
  <trip id="vehicle_74" depart="218" from="road_1_2_3" to="road_1_1_3" color="cyan" type="type_74" begin="218" end="218" period="5"/>
  <vType id="type_75" length="5.0" width="2.0" accel="2.0" decel="4.5" minGap="2.5" maxSpeed="11.11" tau="2.0" emergencyDecel="4.5"/>
  <trip id="vehicle_75" depart="218" from="road_1_2_3" to="road_1_1_0" color="cyan" type="type_75" begin="218" end="218" period="5"/>
  <vType id="type_76" length="5.0" width="2.0" accel="2.0" decel="4.5" minGap="2.5" maxSpeed="11.11" tau="2.0" emergencyDecel="4.5"/>
  <trip id="vehicle_76" depart="221" from="road_1_0_1" to="road_1_1_1" color="cyan" type="type_76" begin="221" end="221" period="5"/>
  <vType id="type_77" length="5.0" width="2.0" accel="2.0" decel="4.5" minGap="2.5" maxSpeed="11.11" tau="2.0" emergencyDecel="4.5"/>
  <trip id="vehicle_77" depart="221" from="road_2_1_2" to="road_1_1_2" color="cyan" type="type_77" begin="221" end="221" period="5"/>
  <vType id="type_78" length="5.0" width="2.0" accel="2.0" decel="4.5" minGap="2.5" maxSpeed="11.11" tau="2.0" emergencyDecel="4.5"/>
  <trip id="vehicle_78" depart="223" from="road_2_1_2" to="road_1_1_2" color="cyan" type="type_78" begin="223" end="223" period="5"/>
  <vType id="type_79" length="5.0" width="2.0" accel="2.0" decel="4.5" minGap="2.5" maxSpeed="11.11" tau="2.0" emergencyDecel="4.5"/>
  <trip id="vehicle_79" depart="227" from="road_2_1_2" to="road_1_1_2" color="cyan" type="type_79" begin="227" end="227" period="5"/>
  <vType id="type_80" length="5.0" width="2.0" accel="2.0" decel="4.5" minGap="2.5" maxSpeed="11.11" tau="2.0" emergencyDecel="4.5"/>
  <trip id="vehicle_80" depart="229" from="road_2_1_2" to="road_1_1_2" color="cyan" type="type_80" begin="229" end="229" period="5"/>
  <vType id="type_81" length="5.0" width="2.0" accel="2.0" decel="4.5" minGap="2.5" maxSpeed="11.11" tau="2.0" emergencyDecel="4.5"/>
  <trip id="vehicle_81" depart="230" from="road_2_1_2" to="road_1_1_2" color="cyan" type="type_81" begin="230" end="230" period="5"/>
  <vType id="type_82" length="5.0" width="2.0" accel="2.0" decel="4.5" minGap="2.5" maxSpeed="11.11" tau="2.0" emergencyDecel="4.5"/>
  <trip id="vehicle_82" depart="230" from="road_2_1_2" to="road_1_1_3" color="cyan" type="type_82" begin="230" end="230" period="5"/>
  <vType id="type_83" length="5.0" width="2.0" accel="2.0" decel="4.5" minGap="2.5" maxSpeed="11.11" tau="2.0" emergencyDecel="4.5"/>
  <trip id="vehicle_83" depart="232" from="road_0_1_0" to="road_1_1_0" color="cyan" type="type_83" begin="232" end="232" period="5"/>
  <vType id="type_84" length="5.0" width="2.0" accel="2.0" decel="4.5" minGap="2.5" maxSpeed="11.11" tau="2.0" emergencyDecel="4.5"/>
  <trip id="vehicle_84" depart="233" from="road_0_1_0" to="road_1_1_0" color="cyan" type="type_84" begin="233" end="233" period="5"/>
  <vType id="type_85" length="5.0" width="2.0" accel="2.0" decel="4.5" minGap="2.5" maxSpeed="11.11" tau="2.0" emergencyDecel="4.5"/>
  <trip id="vehicle_85" depart="235" from="road_2_1_2" to="road_1_1_2" color="cyan" type="type_85" begin="235" end="235" period="5"/>
  <vType id="type_86" length="5.0" width="2.0" accel="2.0" decel="4.5" minGap="2.5" maxSpeed="11.11" tau="2.0" emergencyDecel="4.5"/>
  <trip id="vehicle_86" depart="238" from="road_1_2_3" to="road_1_1_3" color="cyan" type="type_86" begin="238" end="238" period="5"/>
  <vType id="type_87" length="5.0" width="2.0" accel="2.0" decel="4.5" minGap="2.5" maxSpeed="11.11" tau="2.0" emergencyDecel="4.5"/>
  <trip id="vehicle_87" depart="243" from="road_2_1_2" to="road_1_1_2" color="cyan" type="type_87" begin="243" end="243" period="5"/>
  <vType id="type_88" length="5.0" width="2.0" accel="2.0" decel="4.5" minGap="2.5" maxSpeed="11.11" tau="2.0" emergencyDecel="4.5"/>
  <trip id="vehicle_88" depart="245" from="road_0_1_0" to="road_1_1_0" color="cyan" type="type_88" begin="245" end="245" period="5"/>
  <vType id="type_89" length="5.0" width="2.0" accel="2.0" decel="4.5" minGap="2.5" maxSpeed="11.11" tau="2.0" emergencyDecel="4.5"/>
  <trip id="vehicle_89" depart="246" from="road_2_1_2" to="road_1_1_2" color="cyan" type="type_89" begin="246" end="246" period="5"/>
  <vType id="type_90" length="5.0" width="2.0" accel="2.0" decel="4.5" minGap="2.5" maxSpeed="11.11" tau="2.0" emergencyDecel="4.5"/>
  <trip id="vehicle_90" depart="248" from="road_0_1_0" to="road_1_1_0" color="cyan" type="type_90" begin="248" end="248" period="5"/>
  <vType id="type_91" length="5.0" width="2.0" accel="2.0" decel="4.5" minGap="2.5" maxSpeed="11.11" tau="2.0" emergencyDecel="4.5"/>
  <trip id="vehicle_91" depart="249" from="road_0_1_0" to="road_1_1_0" color="cyan" type="type_91" begin="249" end="249" period="5"/>
  <vType id="type_92" length="5.0" width="2.0" accel="2.0" decel="4.5" minGap="2.5" maxSpeed="11.11" tau="2.0" emergencyDecel="4.5"/>
  <trip id="vehicle_92" depart="249" from="road_0_1_0" to="road_1_1_1" color="cyan" type="type_92" begin="249" end="249" period="5"/>
  <vType id="type_93" length="5.0" width="2.0" accel="2.0" decel="4.5" minGap="2.5" maxSpeed="11.11" tau="2.0" emergencyDecel="4.5"/>
  <trip id="vehicle_93" depart="249" from="road_1_0_1" to="road_1_1_1" color="cyan" type="type_93" begin="249" end="249" period="5"/>
  <vType id="type_94" length="5.0" width="2.0" accel="2.0" decel="4.5" minGap="2.5" maxSpeed="11.11" tau="2.0" emergencyDecel="4.5"/>
  <trip id="vehicle_94" depart="250" from="road_2_1_2" to="road_1_1_2" color="cyan" type="type_94" begin="250" end="250" period="5"/>
  <vType id="type_95" length="5.0" width="2.0" accel="2.0" decel="4.5" minGap="2.5" maxSpeed="11.11" tau="2.0" emergencyDecel="4.5"/>
  <trip id="vehicle_95" depart="253" from="road_1_0_1" to="road_1_1_1" color="cyan" type="type_95" begin="253" end="253" period="5"/>
  <vType id="type_96" length="5.0" width="2.0" accel="2.0" decel="4.5" minGap="2.5" maxSpeed="11.11" tau="2.0" emergencyDecel="4.5"/>
  <trip id="vehicle_96" depart="256" from="road_2_1_2" to="road_1_1_2" color="cyan" type="type_96" begin="256" end="256" period="5"/>
  <vType id="type_97" length="5.0" width="2.0" accel="2.0" decel="4.5" minGap="2.5" maxSpeed="11.11" tau="2.0" emergencyDecel="4.5"/>
  <trip id="vehicle_97" depart="260" from="road_0_1_0" to="road_1_1_0" color="cyan" type="type_97" begin="260" end="260" period="5"/>
  <vType id="type_98" length="5.0" width="2.0" accel="2.0" decel="4.5" minGap="2.5" maxSpeed="11.11" tau="2.0" emergencyDecel="4.5"/>
  <trip id="vehicle_98" depart="260" from="road_0_1_0" to="road_1_1_1" color="cyan" type="type_98" begin="260" end="260" period="5"/>
  <vType id="type_99" length="5.0" width="2.0" accel="2.0" decel="4.5" minGap="2.5" maxSpeed="11.11" tau="2.0" emergencyDecel="4.5"/>
  <trip id="vehicle_99" depart="263" from="road_0_1_0" to="road_1_1_0" color="cyan" type="type_99" begin="263" end="263" period="5"/>
  <vType id="type_100" length="5.0" width="2.0" accel="2.0" decel="4.5" minGap="2.5" maxSpeed="11.11" tau="2.0" emergencyDecel="4.5"/>
  <trip id="vehicle_100" depart="263" from="road_1_0_1" to="road_1_1_1" color="cyan" type="type_100" begin="263" end="263" period="5"/>
  <vType id="type_101" length="5.0" width="2.0" accel="2.0" decel="4.5" minGap="2.5" maxSpeed="11.11" tau="2.0" emergencyDecel="4.5"/>
  <trip id="vehicle_101" depart="264" from="road_2_1_2" to="road_1_1_2" color="cyan" type="type_101" begin="264" end="264" period="5"/>
  <vType id="type_102" length="5.0" width="2.0" accel="2.0" decel="4.5" minGap="2.5" maxSpeed="11.11" tau="2.0" emergencyDecel="4.5"/>
  <trip id="vehicle_102" depart="266" from="road_0_1_0" to="road_1_1_0" color="cyan" type="type_102" begin="266" end="266" period="5"/>
  <vType id="type_103" length="5.0" width="2.0" accel="2.0" decel="4.5" minGap="2.5" maxSpeed="11.11" tau="2.0" emergencyDecel="4.5"/>
  <trip id="vehicle_103" depart="271" from="road_0_1_0" to="road_1_1_0" color="cyan" type="type_103" begin="271" end="271" period="5"/>
  <vType id="type_104" length="5.0" width="2.0" accel="2.0" decel="4.5" minGap="2.5" maxSpeed="11.11" tau="2.0" emergencyDecel="4.5"/>
  <trip id="vehicle_104" depart="272" from="road_2_1_2" to="road_1_1_2" color="cyan" type="type_104" begin="272" end="272" period="5"/>
  <vType id="type_105" length="5.0" width="2.0" accel="2.0" decel="4.5" minGap="2.5" maxSpeed="11.11" tau="2.0" emergencyDecel="4.5"/>
  <trip id="vehicle_105" depart="275" from="road_0_1_0" to="road_1_1_0" color="cyan" type="type_105" begin="275" end="275" period="5"/>
  <vType id="type_106" length="5.0" width="2.0" accel="2.0" decel="4.5" minGap="2.5" maxSpeed="11.11" tau="2.0" emergencyDecel="4.5"/>
  <trip id="vehicle_106" depart="279" from="road_2_1_2" to="road_1_1_2" color="cyan" type="type_106" begin="279" end="279" period="5"/>
  <vType id="type_107" length="5.0" width="2.0" accel="2.0" decel="4.5" minGap="2.5" maxSpeed="11.11" tau="2.0" emergencyDecel="4.5"/>
  <trip id="vehicle_107" depart="280" from="road_0_1_0" to="road_1_1_0" color="cyan" type="type_107" begin="280" end="280" period="5"/>
  <vType id="type_108" length="5.0" width="2.0" accel="2.0" decel="4.5" minGap="2.5" maxSpeed="11.11" tau="2.0" emergencyDecel="4.5"/>
  <trip id="vehicle_108" depart="280" from="road_0_1_0" to="road_1_1_0" color="cyan" type="type_108" begin="280" end="280" period="5"/>
  <vType id="type_109" length="5.0" width="2.0" accel="2.0" decel="4.5" minGap="2.5" maxSpeed="11.11" tau="2.0" emergencyDecel="4.5"/>
  <trip id="vehicle_109" depart="280" from="road_2_1_2" to="road_1_1_2" color="cyan" type="type_109" begin="280" end="280" period="5"/>
  <vType id="type_110" length="5.0" width="2.0" accel="2.0" decel="4.5" minGap="2.5" maxSpeed="11.11" tau="2.0" emergencyDecel="4.5"/>
  <trip id="vehicle_110" depart="281" from="road_0_1_0" to="road_1_1_0" color="cyan" type="type_110" begin="281" end="281" period="5"/>
  <vType id="type_111" length="5.0" width="2.0" accel="2.0" decel="4.5" minGap="2.5" maxSpeed="11.11" tau="2.0" emergencyDecel="4.5"/>
  <trip id="vehicle_111" depart="283" from="road_2_1_2" to="road_1_1_2" color="cyan" type="type_111" begin="283" end="283" period="5"/>