<?xml version="1.0" encoding="UTF-8"?>

<!-- generated on 2021-10-24 13:24:13 by Eclipse SUMO duarouter Version 1.10.0
<configuration xmlns:xsi="http://www.w3.org/2001/XMLSchema-instance" xsi:noNamespaceSchemaLocation="http://sumo.dlr.de/xsd/duarouterConfiguration.xsd">

    <input>
        <net-file value="cps_multi.net.xml"/>
        <route-files value="trips.trips.xml"/>
    </input>

    <output>
        <output-file value="cps_multi.rou.xml"/>
        <alternatives-output value="cps_multi.rou.alt.xml"/>
    </output>

    <time>
        <begin value="0"/>
        <end value="3600"/>
    </time>

    <report>
        <no-warnings value="true"/>
        <ignore-errors value="true"/>
        <no-step-log value="true"/>
    </report>

</configuration>
-->

<routes xmlns:xsi="http://www.w3.org/2001/XMLSchema-instance" xsi:noNamespaceSchemaLocation="http://sumo.dlr.de/xsd/routes_file.xsd">
    <vehicle id="0" depart="0.00">
        <route edges="-gneE8 gneE0 gneE1 gneE12 -gneE5 -gneE2 -gneE0"/>
    </vehicle>
    <vehicle id="2" depart="4.00">
        <route edges="gneE0 gneE2 gneE3"/>
    </vehicle>
    <vehicle id="4" depart="8.00">
        <route edges="-gneE4 -gneE2 -gneE0"/>
    </vehicle>
    <vehicle id="8" depart="16.00">
        <route edges="-gneE13 gneE14"/>
    </vehicle>
    <vehicle id="9" depart="18.00">
        <route edges="gneE12 -gneE5 -gneE2 -gneE0"/>
    </vehicle>
    <vehicle id="10" depart="20.00">
        <route edges="gneE12 -gneE5 gneE3"/>
    </vehicle>
    <vehicle id="11" depart="22.00">
        <route edges="-gneE2"/>
    </vehicle>
    <vehicle id="13" depart="26.00">
        <route edges="-gneE1"/>
    </vehicle>
    <vehicle id="15" depart="30.00">
        <route edges="gneE12 -gneE5 gneE4"/>
    </vehicle>
    <vehicle id="16" depart="32.00">
        <route edges="-gneE6 -gneE3 -gneE2 -gneE0 gneE9"/>
    </vehicle>
    <vehicle id="17" depart="34.00">
        <route edges="-gneE3 gneE5 gneE14"/>
    </vehicle>
    <vehicle id="20" depart="40.00">
        <route edges="gneE0 gneE1 gneE12 -gneE5 -gneE2 -gneE0"/>
    </vehicle>
    <vehicle id="21" depart="42.00">
        <route edges="-gneE13 -gneE5"/>
    </vehicle>
    <vehicle id="23" depart="46.00">
        <route edges="-gneE10 gneE12 -gneE5"/>
    </vehicle>
    <vehicle id="24" depart="48.00">
        <route edges="-gneE8 gneE0 gneE1"/>
    </vehicle>
    <vehicle id="25" depart="50.00">
        <route edges="-gneE3"/>
    </vehicle>
    <vehicle id="26" depart="52.00">
        <route edges="-gneE14 -gneE12 -gneE1 -gneE0 gneE8"/>
    </vehicle>
    <vehicle id="27" depart="54.00">
        <route edges="-gneE8 gneE0 gneE2"/>
    </vehicle>
    <vehicle id="28" depart="56.00">
        <route edges="-gneE12 -gneE1 gneE2 gneE4"/>
    </vehicle>
    <vehicle id="30" depart="60.00">
        <route edges="gneE5 -gneE12 -gneE1 gneE2"/>
    </vehicle>
    <vehicle id="31" depart="62.00">
        <route edges="-gneE7 -gneE3 gneE5 -gneE12 -gneE1 gneE2 gneE3"/>
    </vehicle>
    <vehicle id="33" depart="66.00">
        <route edges="-gneE13 -gneE5 -gneE2 -gneE0"/>
    </vehicle>
    <vehicle id="34" depart="68.00">
        <route edges="-gneE2 gneE1 gneE12 -gneE5"/>
    </vehicle>
    <vehicle id="35" depart="70.00">
        <route edges="-gneE13 -gneE5 -gneE2 -gneE0 gneE8"/>
    </vehicle>
    <vehicle id="37" depart="74.00">
        <route edges="-gneE9 gneE0 gneE1"/>
    </vehicle>
    <vehicle id="40" depart="80.00">
        <route edges="-gneE7 -gneE3 -gneE2 gneE1 gneE12 -gneE5"/>
    </vehicle>
    <vehicle id="41" depart="82.00">
        <route edges="-gneE7 -gneE3 gneE5 -gneE12 -gneE1 gneE2 gneE3 gneE7"/>
    </vehicle>
    <vehicle id="42" depart="84.00">
        <route edges="-gneE3"/>
    </vehicle>
    <vehicle id="43" depart="86.00">
        <route edges="gneE5 gneE13"/>
    </vehicle>
    <vehicle id="44" depart="88.00">
        <route edges="-gneE1 -gneE0"/>
    </vehicle>
    <vehicle id="45" depart="90.00">
        <route edges="-gneE10 -gneE1 gneE2"/>
    </vehicle>
    <vehicle id="46" depart="92.00">
        <route edges="gneE1 gneE10"/>
    </vehicle>
    <vehicle id="48" depart="96.00">
        <route edges="gneE5 gneE13"/>
    </vehicle>
    <vehicle id="49" depart="98.00">
        <route edges="gneE5 -gneE12 -gneE1 gneE2 gneE3 gneE7"/>
    </vehicle>
    <vehicle id="52" depart="104.00">
        <route edges="-gneE14 -gneE12 -gneE1 gneE2"/>
    </vehicle>
    <vehicle id="53" depart="106.00">
        <route edges="-gneE10 gneE12 -gneE5 -gneE2 gneE1 gneE10"/>
    </vehicle>
    <vehicle id="54" depart="108.00">
        <route edges="-gneE5 -gneE2 -gneE0 gneE9"/>
    </vehicle>
    <vehicle id="56" depart="112.00">
        <route edges="-gneE6 -gneE3 -gneE2"/>
    </vehicle>
    <vehicle id="57" depart="114.00">
        <route edges="gneE3 gneE7"/>
    </vehicle>
    <vehicle id="58" depart="116.00">
        <route edges="-gneE14 -gneE12 -gneE1 gneE2"/>
    </vehicle>
    <vehicle id="59" depart="118.00">
        <route edges="-gneE8 gneE0 gneE1 gneE12 -gneE5 -gneE2"/>
    </vehicle>
    <vehicle id="63" depart="126.00">
        <route edges="-gneE0 gneE8"/>
    </vehicle>
    <vehicle id="64" depart="128.00">
        <route edges="gneE2 gneE3 gneE6"/>
    </vehicle>
    <vehicle id="71" depart="142.00">
        <route edges="-gneE14 -gneE12 -gneE1 gneE2 gneE3 gneE7"/>
    </vehicle>
    <vehicle id="73" depart="146.00">
        <route edges="-gneE6 -gneE3 gneE4"/>
    </vehicle>
    <vehicle id="75" depart="150.00">
        <route edges="gneE5 -gneE12 -gneE1 gneE2"/>
    </vehicle>
    <vehicle id="76" depart="152.00">
        <route edges="-gneE4 gneE5 gneE13"/>
    </vehicle>
    <vehicle id="78" depart="156.00">
        <route edges="-gneE2 gneE1 gneE12 gneE14"/>
    </vehicle>
    <vehicle id="80" depart="160.00">
        <route edges="-gneE1 gneE2"/>
    </vehicle>
    <vehicle id="81" depart="162.00">
        <route edges="-gneE13 -gneE5 -gneE2 -gneE0 gneE8"/>
    </vehicle>
    <vehicle id="83" depart="166.00">
        <route edges="-gneE13 -gneE5 gneE3"/>
    </vehicle>
    <vehicle id="84" depart="168.00">
        <route edges="-gneE13 -gneE12"/>
    </vehicle>
    <vehicle id="87" depart="174.00">
        <route edges="gneE12 -gneE5 -gneE2"/>
    </vehicle>
    <vehicle id="89" depart="178.00">
        <route edges="-gneE4 -gneE2 gneE1 gneE12"/>
    </vehicle>
    <vehicle id="90" depart="180.00">
        <route edges="gneE0 gneE2 gneE3"/>
    </vehicle>
    <vehicle id="91" depart="182.00">
        <route edges="gneE5 -gneE12 -gneE1"/>
    </vehicle>
    <vehicle id="94" depart="188.00">
        <route edges="-gneE12 gneE10"/>
    </vehicle>
    <vehicle id="95" depart="190.00">
        <route edges="-gneE4 -gneE2 gneE1 gneE12 -gneE5"/>
    </vehicle>
    <vehicle id="96" depart="192.00">
        <route edges="-gneE13 -gneE5 -gneE2 -gneE0 gneE8"/>
    </vehicle>
    <vehicle id="97" depart="194.00">
        <route edges="-gneE4 gneE5 -gneE12 -gneE1 gneE2 gneE3 gneE7"/>
    </vehicle>
    <vehicle id="98" depart="196.00">
        <route edges="-gneE7 -gneE3 gneE5 -gneE12 -gneE1"/>
    </vehicle>
    <vehicle id="99" depart="198.00">
        <route edges="gneE5 -gneE12 -gneE1 gneE2 gneE3 gneE6"/>
    </vehicle>
    <vehicle id="100" depart="200.00">
        <route edges="gneE5 -gneE12 -gneE1 -gneE0 gneE8"/>
    </vehicle>
    <vehicle id="101" depart="202.00">
        <route edges="gneE12 -gneE5 -gneE2"/>
    </vehicle>
    <vehicle id="103" depart="206.00">
        <route edges="-gneE4 gneE5 -gneE12 -gneE1"/>
    </vehicle>
    <vehicle id="104" depart="208.00">
        <route edges="-gneE3 -gneE2 -gneE0 gneE9"/>
    </vehicle>
    <vehicle id="106" depart="212.00">
        <route edges="-gneE5 -gneE2 gneE1 gneE10"/>
    </vehicle>
    <vehicle id="107" depart="214.00">
        <route edges="gneE5 -gneE12 -gneE1 -gneE0 gneE9"/>
    </vehicle>
    <vehicle id="108" depart="216.00">
        <route edges="-gneE7 -gneE3 gneE4"/>
    </vehicle>
    <vehicle id="110" depart="220.00">
        <route edges="gneE5 gneE14"/>
    </vehicle>
    <vehicle id="111" depart="222.00">
        <route edges="-gneE6 -gneE3 gneE4"/>
    </vehicle>
    <vehicle id="113" depart="226.00">
        <route edges="-gneE6 gneE7"/>
    </vehicle>
    <vehicle id="114" depart="228.00">
        <route edges="-gneE12 -gneE1 -gneE0 gneE9"/>
    </vehicle>
    <vehicle id="116" depart="232.00">
        <route edges="-gneE7 -gneE3 gneE5 -gneE12 -gneE1 gneE2 gneE3"/>
    </vehicle>
    <vehicle id="117" depart="234.00">
        <route edges="-gneE13 -gneE12"/>
    </vehicle>
    <vehicle id="119" depart="238.00">
        <route edges="-gneE7 -gneE3 gneE5 -gneE12 -gneE1 gneE2"/>
    </vehicle>
    <vehicle id="120" depart="240.00">
        <route edges="-gneE4 gneE5 gneE14"/>
    </vehicle>
    <vehicle id="121" depart="242.00">
        <route edges="-gneE6 -gneE3 -gneE2 -gneE0 gneE8"/>
    </vehicle>
    <vehicle id="122" depart="244.00">
        <route edges="-gneE13 -gneE5 gneE4"/>
    </vehicle>
    <vehicle id="123" depart="246.00">
        <route edges="-gneE13 -gneE5 -gneE2 gneE1"/>
    </vehicle>
    <vehicle id="124" depart="248.00">
        <route edges="-gneE9 gneE0 gneE1 gneE12 -gneE5"/>
    </vehicle>
    <vehicle id="127" depart="254.00">
        <route edges="gneE5 -gneE12 -gneE1 -gneE0 gneE9"/>
    </vehicle>
    <vehicle id="129" depart="258.00">
        <route edges="-gneE14 -gneE12 -gneE1 -gneE0 gneE8"/>
    </vehicle>
    <vehicle id="130" depart="260.00">
        <route edges="gneE2 gneE3 gneE7"/>
    </vehicle>
    <vehicle id="131" depart="262.00">
        <route edges="-gneE3 -gneE2"/>
    </vehicle>
    <vehicle id="132" depart="264.00">
        <route edges="gneE12 -gneE5 gneE4"/>
    </vehicle>
    <vehicle id="133" depart="266.00">
        <route edges="-gneE8 gneE9"/>
    </vehicle>
    <vehicle id="134" depart="268.00">
        <route edges="-gneE9 gneE0 gneE1 gneE12 -gneE5 -gneE2 -gneE0"/>
    </vehicle>
    <vehicle id="135" depart="270.00">
        <route edges="gneE12 -gneE5"/>
    </vehicle>
    <vehicle id="136" depart="272.00">
        <route edges="-gneE9 gneE8"/>
    </vehicle>
    <vehicle id="138" depart="276.00">
        <route edges="-gneE10 gneE12 gneE14"/>
    </vehicle>
    <vehicle id="139" depart="278.00">
        <route edges="-gneE14 -gneE12 -gneE1 gneE2"/>
    </vehicle>
    <vehicle id="141" depart="282.00">
        <route edges="-gneE8 gneE0 gneE1 gneE12 -gneE5"/>
    </vehicle>
    <vehicle id="142" depart="284.00">
        <route edges="-gneE5 -gneE2 -gneE0 gneE8"/>
    </vehicle>
    <vehicle id="144" depart="288.00">
        <route edges="-gneE4 -gneE2 gneE1 gneE12 -gneE5"/>
    </vehicle>
    <vehicle id="146" depart="292.00">
        <route edges="-gneE8 gneE0 gneE1 gneE12 -gneE5"/>
    </vehicle>
    <vehicle id="147" depart="294.00">
        <route edges="gneE0 gneE1 gneE12 gneE14"/>
    </vehicle>
    <vehicle id="148" depart="296.00">
        <route edges="-gneE4 -gneE2 -gneE0"/>
    </vehicle>
    <vehicle id="149" depart="298.00">
        <route edges="-gneE1 gneE2 gneE3 gneE7"/>
    </vehicle>
    <vehicle id="151" depart="302.00">
        <route edges="gneE12 gneE14"/>
    </vehicle>
    <vehicle id="153" depart="306.00">
        <route edges="-gneE2 gneE1 gneE12 -gneE5 gneE3 gneE7"/>
    </vehicle>
    <vehicle id="154" depart="308.00">
        <route edges="gneE1 gneE12 -gneE5 gneE3 gneE7"/>
    </vehicle>
    <vehicle id="156" depart="312.00">
        <route edges="-gneE13 -gneE12"/>
    </vehicle>
    <vehicle id="157" depart="314.00">
        <route edges="gneE1 gneE12 -gneE5 gneE3 gneE7"/>
    </vehicle>
    <vehicle id="158" depart="316.00">
        <route edges="-gneE4 gneE5 -gneE12 -gneE1 gneE2"/>
    </vehicle>
    <vehicle id="159" depart="318.00">
        <route edges="-gneE12 -gneE1 -gneE0 gneE8"/>
    </vehicle>
    <vehicle id="161" depart="322.00">
        <route edges="gneE12 -gneE5 gneE3 gneE7"/>
    </vehicle>
    <vehicle id="163" depart="326.00">
        <route edges="-gneE2 -gneE0 gneE8"/>
    </vehicle>
    <vehicle id="164" depart="328.00">
        <route edges="gneE12 -gneE5 gneE3 gneE7"/>
    </vehicle>
    <vehicle id="165" depart="330.00">
        <route edges="gneE12 -gneE5"/>
    </vehicle>
    <vehicle id="167" depart="334.00">
        <route edges="gneE2 gneE3 gneE7"/>
    </vehicle>
    <vehicle id="168" depart="336.00">
        <route edges="-gneE13 -gneE5 gneE3 gneE6"/>
    </vehicle>
    <vehicle id="172" depart="344.00">
        <route edges="-gneE2 gneE1 gneE12 -gneE5 gneE3 gneE7"/>
    </vehicle>
    <vehicle id="174" depart="348.00">
        <route edges="-gneE8 gneE0 gneE1"/>
    </vehicle>
    <vehicle id="175" depart="350.00">
        <route edges="gneE5 gneE13"/>
    </vehicle>
    <vehicle id="179" depart="358.00">
        <route edges="-gneE10 gneE12 -gneE5 -gneE2 gneE1 gneE10"/>
    </vehicle>
    <vehicle id="180" depart="360.00">
        <route edges="gneE0"/>
    </vehicle>
    <vehicle id="182" depart="364.00">
        <route edges="-gneE3 gneE5 gneE14"/>
    </vehicle>
    <vehicle id="183" depart="366.00">
        <route edges="-gneE14 -gneE12 -gneE1 gneE2 gneE4"/>
    </vehicle>
    <vehicle id="184" depart="368.00">
        <route edges="-gneE0 gneE8"/>
    </vehicle>
    <vehicle id="185" depart="370.00">
        <route edges="-gneE6 -gneE3 gneE4"/>
    </vehicle>
    <vehicle id="186" depart="372.00">
        <route edges="gneE0 gneE2 gneE3"/>
    </vehicle>
    <vehicle id="187" depart="374.00">
        <route edges="-gneE3 gneE5 -gneE12 -gneE1"/>
    </vehicle>
    <vehicle id="188" depart="376.00">
        <route edges="-gneE9 gneE0"/>
    </vehicle>
    <vehicle id="189" depart="378.00">
        <route edges="-gneE2 gneE1 gneE12 -gneE5 gneE3 gneE6"/>
    </vehicle>
    <vehicle id="190" depart="380.00">
        <route edges="gneE0"/>
    </vehicle>
    <vehicle id="191" depart="382.00">
        <route edges="-gneE2 gneE1 gneE10"/>
    </vehicle>
    <vehicle id="192" depart="384.00">
        <route edges="-gneE4 -gneE2 gneE1 gneE12 -gneE5"/>
    </vehicle>
    <vehicle id="193" depart="386.00">
        <route edges="-gneE10 gneE12 -gneE5 -gneE2 gneE1 gneE10"/>
    </vehicle>
    <vehicle id="194" depart="388.00">
        <route edges="gneE3"/>
    </vehicle>
    <vehicle id="198" depart="396.00">
        <route edges="-gneE4 gneE5 gneE14"/>
    </vehicle>
    <vehicle id="199" depart="398.00">
        <route edges="-gneE9 gneE0 gneE1 gneE12"/>
    </vehicle>
    <vehicle id="201" depart="402.00">
        <route edges="-gneE5 -gneE2 -gneE0 gneE8"/>
    </vehicle>
    <vehicle id="202" depart="404.00">
        <route edges="gneE1 gneE12 -gneE5 -gneE2"/>
    </vehicle>
    <vehicle id="204" depart="408.00">
        <route edges="-gneE8 gneE0"/>
    </vehicle>
    <vehicle id="207" depart="414.00">
        <route edges="-gneE12 -gneE1 -gneE0"/>
    </vehicle>
    <vehicle id="208" depart="416.00">
        <route edges="-gneE13 -gneE5 -gneE2 gneE1 gneE12"/>
    </vehicle>
    <vehicle id="210" depart="420.00">
        <route edges="-gneE4 gneE5 -gneE12 -gneE1 gneE2"/>
    </vehicle>
    <vehicle id="211" depart="422.00">
        <route edges="-gneE12 -gneE1 gneE2 gneE3"/>
    </vehicle>
    <vehicle id="213" depart="426.00">
        <route edges="-gneE9 gneE0 gneE1 gneE12 -gneE5 -gneE2 -gneE0"/>
    </vehicle>
    <vehicle id="215" depart="430.00">
        <route edges="-gneE10 gneE12 -gneE5 -gneE2 gneE1 gneE10"/>
    </vehicle>
    <vehicle id="216" depart="432.00">
        <route edges="-gneE12 -gneE1 -gneE0 gneE9"/>
    </vehicle>
    <vehicle id="217" depart="434.00">
        <route edges="-gneE6 -gneE3 gneE5 -gneE12 -gneE1"/>
    </vehicle>
    <vehicle id="218" depart="436.00">
        <route edges="-gneE13 -gneE5 gneE3 gneE6"/>
    </vehicle>
    <vehicle id="219" depart="438.00">
        <route edges="-gneE5 gneE3 gneE6"/>
    </vehicle>
    <vehicle id="220" depart="440.00">
        <route edges="-gneE9 gneE0 gneE1 gneE12 -gneE5 -gneE2 -gneE0 gneE9"/>
    </vehicle>
    <vehicle id="221" depart="442.00">
        <route edges="-gneE7 -gneE3 -gneE2 -gneE0 gneE9"/>
    </vehicle>
    <vehicle id="222" depart="444.00">
        <route edges="gneE2"/>
    </vehicle>
    <vehicle id="225" depart="450.00">
        <route edges="gneE2 gneE4"/>
    </vehicle>
    <vehicle id="226" depart="452.00">
        <route edges="-gneE5"/>
    </vehicle>
    <vehicle id="227" depart="454.00">
        <route edges="-gneE13 -gneE12 -gneE1 gneE2"/>
    </vehicle>
    <vehicle id="229" depart="458.00">
        <route edges="-gneE8 gneE0 gneE1 gneE12 -gneE5"/>
    </vehicle>
    <vehicle id="232" depart="464.00">
        <route edges="-gneE6 -gneE3 gneE5 -gneE12"/>
    </vehicle>
    <vehicle id="233" depart="466.00">
        <route edges="-gneE13 -gneE5 gneE3"/>
    </vehicle>
    <vehicle id="235" depart="470.00">
        <route edges="-gneE4 gneE5 gneE13"/>
    </vehicle>
    <vehicle id="237" depart="474.00">
        <route edges="-gneE4 -gneE2 -gneE0 gneE8"/>
    </vehicle>
    <vehicle id="238" depart="476.00">
        <route edges="-gneE7 -gneE3 gneE5 -gneE12 -gneE1 gneE2 gneE3"/>
    </vehicle>
    <vehicle id="240" depart="480.00">
        <route edges="-gneE3 -gneE2 -gneE0"/>
    </vehicle>
    <vehicle id="241" depart="482.00">
        <route edges="-gneE3 gneE5"/>
    </vehicle>
    <vehicle id="243" depart="486.00">
        <route edges="-gneE4 gneE5 -gneE12 -gneE1 gneE2 gneE4"/>
    </vehicle>
    <vehicle id="244" depart="488.00">
        <route edges="-gneE6 -gneE3 gneE5 -gneE12 -gneE1 gneE2"/>
    </vehicle>
    <vehicle id="246" depart="492.00">
        <route edges="-gneE4 -gneE2 -gneE0"/>
    </vehicle>
    <vehicle id="247" depart="494.00">
        <route edges="-gneE2 gneE1 gneE12 -gneE5 gneE3"/>
    </vehicle>
    <vehicle id="248" depart="496.00">
        <route edges="-gneE4 -gneE2"/>
    </vehicle>
    <vehicle id="250" depart="500.00">
        <route edges="-gneE8 gneE0 gneE1 gneE12 -gneE5 -gneE2 -gneE0"/>
    </vehicle>
    <vehicle id="251" depart="502.00">
        <route edges="-gneE3 gneE5 gneE14"/>
    </vehicle>
    <vehicle id="253" depart="506.00">
        <route edges="-gneE10 gneE12"/>
    </vehicle>
    <vehicle id="256" depart="512.00">
        <route edges="gneE1"/>
    </vehicle>
    <vehicle id="257" depart="514.00">
        <route edges="gneE1 gneE12 -gneE5 gneE3 gneE6"/>
    </vehicle>
    <vehicle id="258" depart="516.00">
        <route edges="-gneE14 -gneE12 -gneE1"/>
    </vehicle>
    <vehicle id="265" depart="530.00">
        <route edges="-gneE10 gneE12 -gneE5 gneE3"/>
    </vehicle>
    <vehicle id="266" depart="532.00">
        <route edges="-gneE7 -gneE3"/>
    </vehicle>
    <vehicle id="268" depart="536.00">
        <route edges="-gneE12 -gneE1 gneE2"/>
    </vehicle>
    <vehicle id="270" depart="540.00">
        <route edges="gneE12 -gneE5 -gneE2 -gneE0 gneE9"/>
    </vehicle>
    <vehicle id="271" depart="542.00">
        <route edges="-gneE10 -gneE1 -gneE0"/>
    </vehicle>
    <vehicle id="272" depart="544.00">
        <route edges="-gneE2 gneE1 gneE12 -gneE5 gneE3"/>
    </vehicle>
    <vehicle id="275" depart="550.00">
        <route edges="-gneE9 gneE0 gneE2"/>
    </vehicle>
    <vehicle id="277" depart="554.00">
        <route edges="gneE2"/>
    </vehicle>
    <vehicle id="278" depart="556.00">
        <route edges="-gneE10 -gneE1 -gneE0 gneE9"/>
    </vehicle>
    <vehicle id="280" depart="560.00">
        <route edges="-gneE4 -gneE2 gneE1"/>
    </vehicle>
    <vehicle id="282" depart="564.00">
        <route edges="gneE12 -gneE5 gneE3 gneE6"/>
    </vehicle>
    <vehicle id="283" depart="566.00">
        <route edges="-gneE10 -gneE1 -gneE0 gneE9"/>
    </vehicle>
    <vehicle id="284" depart="568.00">
        <route edges="-gneE8 gneE0 gneE2 gneE3 gneE6"/>
    </vehicle>
    <vehicle id="285" depart="570.00">
        <route edges="gneE0 gneE1 gneE10"/>
    </vehicle>
    <vehicle id="286" depart="572.00">
        <route edges="gneE0 gneE1 gneE12 -gneE5 -gneE2 -gneE0 gneE9"/>
    </vehicle>
    <vehicle id="287" depart="574.00">
        <route edges="-gneE14 -gneE12 -gneE1 gneE2 gneE3 gneE6"/>
    </vehicle>
    <vehicle id="288" depart="576.00">
        <route edges="-gneE6 -gneE3 -gneE2 gneE1 gneE12"/>
    </vehicle>
    <vehicle id="289" depart="578.00">
        <route edges="-gneE4 gneE5 -gneE12 -gneE1 gneE2 gneE4"/>
    </vehicle>
    <vehicle id="290" depart="580.00">
        <route edges="-gneE14 -gneE12 -gneE1 gneE2 gneE3 gneE7"/>
    </vehicle>
    <vehicle id="294" depart="588.00">
        <route edges="-gneE3 -gneE2 -gneE0"/>
    </vehicle>
    <vehicle id="297" depart="594.00">
        <route edges="-gneE2 gneE1 gneE12 -gneE5 gneE3 gneE7"/>
    </vehicle>
    <vehicle id="298" depart="596.00">
        <route edges="gneE0 gneE1 gneE12 -gneE5"/>
    </vehicle>
    <vehicle id="299" depart="598.00">
        <route edges="-gneE0 gneE8"/>
    </vehicle>
    <vehicle id="300" depart="600.00">
        <route edges="-gneE1 gneE2 gneE4"/>
    </vehicle>
    <vehicle id="302" depart="604.00">
        <route edges="-gneE9 gneE0 gneE2"/>
    </vehicle>
    <vehicle id="305" depart="610.00">
        <route edges="-gneE9 gneE0"/>
    </vehicle>
    <vehicle id="306" depart="612.00">
        <route edges="-gneE7 -gneE3 -gneE2 gneE1 gneE12"/>
    </vehicle>
    <vehicle id="307" depart="614.00">
        <route edges="-gneE6 -gneE3 gneE5 -gneE12 gneE10"/>
    </vehicle>
    <vehicle id="308" depart="616.00">
        <route edges="gneE0"/>
    </vehicle>
    <vehicle id="309" depart="618.00">
        <route edges="gneE0 gneE1 gneE12 -gneE5"/>
    </vehicle>
    <vehicle id="310" depart="620.00">
        <route edges="-gneE14 -gneE12"/>
    </vehicle>
    <vehicle id="311" depart="622.00">
        <route edges="-gneE12"/>
    </vehicle>
    <vehicle id="312" depart="624.00">
        <route edges="-gneE6 -gneE3 gneE5"/>
    </vehicle>
    <vehicle id="314" depart="628.00">
        <route edges="-gneE5 gneE4"/>
    </vehicle>
    <vehicle id="315" depart="630.00">
        <route edges="gneE5 gneE13"/>
    </vehicle>
    <vehicle id="316" depart="632.00">
        <route edges="-gneE14 -gneE12"/>
    </vehicle>
    <vehicle id="318" depart="636.00">
        <route edges="-gneE12 -gneE1 -gneE0"/>
    </vehicle>
    <vehicle id="319" depart="638.00">
        <route edges="-gneE6 -gneE3 -gneE2 gneE1 gneE12 -gneE5"/>
    </vehicle>
    <vehicle id="320" depart="640.00">
        <route edges="gneE5 gneE14"/>
    </vehicle>
    <vehicle id="324" depart="648.00">
        <route edges="-gneE5 -gneE2 gneE1 gneE10"/>
    </vehicle>
    <vehicle id="325" depart="650.00">
        <route edges="-gneE12 -gneE1"/>
    </vehicle>
    <vehicle id="327" depart="654.00">
        <route edges="gneE12 -gneE5 -gneE2 gneE1 gneE10"/>
    </vehicle>
    <vehicle id="328" depart="656.00">
        <route edges="-gneE1 gneE2"/>
    </vehicle>
    <vehicle id="331" depart="662.00">
        <route edges="gneE5 -gneE12"/>
    </vehicle>
    <vehicle id="334" depart="668.00">
        <route edges="-gneE6 -gneE3 -gneE2 gneE1 gneE12"/>
    </vehicle>
    <vehicle id="335" depart="670.00">
        <route edges="-gneE4 gneE5 -gneE12 -gneE1 gneE2 gneE3 gneE7"/>
    </vehicle>
    <vehicle id="337" depart="674.00">
        <route edges="-gneE8 gneE0 gneE2"/>
    </vehicle>
    <vehicle id="338" depart="676.00">
        <route edges="gneE0 gneE1 gneE12 -gneE5 -gneE2 -gneE0 gneE8"/>
    </vehicle>
    <vehicle id="340" depart="680.00">
        <route edges="-gneE9 gneE0 gneE1 gneE12 -gneE5 -gneE2"/>
    </vehicle>
    <vehicle id="341" depart="682.00">
        <route edges="-gneE12 -gneE1"/>
    </vehicle>
    <vehicle id="343" depart="686.00">
        <route edges="-gneE7 -gneE3 -gneE2 gneE1 gneE12 -gneE5"/>
    </vehicle>
    <vehicle id="344" depart="688.00">
        <route edges="-gneE13 -gneE5 gneE4"/>
    </vehicle>
    <vehicle id="345" depart="690.00">
        <route edges="gneE0 gneE1 gneE12"/>
    </vehicle>
    <vehicle id="346" depart="692.00">
        <route edges="-gneE9 gneE8"/>
    </vehicle>
    <vehicle id="348" depart="696.00">
        <route edges="-gneE9 gneE8"/>
    </vehicle>
    <vehicle id="349" depart="698.00">
        <route edges="-gneE4 gneE5 gneE13"/>
    </vehicle>
    <vehicle id="350" depart="700.00">
        <route edges="-gneE8 gneE0 gneE1 gneE12 -gneE5 -gneE2 -gneE0 gneE8"/>
    </vehicle>
    <vehicle id="353" depart="706.00">
        <route edges="gneE0 gneE1 gneE12 gneE14"/>
    </vehicle>
    <vehicle id="354" depart="708.00">
        <route edges="-gneE14 -gneE12"/>
    </vehicle>
    <vehicle id="355" depart="710.00">
        <route edges="-gneE9 gneE0 gneE2 gneE3"/>
    </vehicle>
    <vehicle id="359" depart="718.00">
        <route edges="-gneE2 gneE1 gneE12 -gneE5"/>
    </vehicle>
    <vehicle id="360" depart="720.00">
        <route edges="-gneE1 -gneE0 gneE9"/>
    </vehicle>
    <vehicle id="361" depart="722.00">
        <route edges="gneE12 gneE14"/>
    </vehicle>
    <vehicle id="362" depart="724.00">
        <route edges="gneE5 -gneE12 -gneE1 -gneE0 gneE9"/>
    </vehicle>
    <vehicle id="363" depart="726.00">
        <route edges="-gneE9 gneE0 gneE1 gneE12 -gneE5"/>
    </vehicle>
    <vehicle id="365" depart="730.00">
        <route edges="-gneE5 gneE3"/>
    </vehicle>
    <vehicle id="367" depart="734.00">
        <route edges="-gneE7 -gneE3 gneE5 -gneE12 -gneE1 gneE2"/>
    </vehicle>
    <vehicle id="370" depart="740.00">
        <route edges="-gneE9 gneE0 gneE2 gneE3 gneE7"/>
    </vehicle>
    <vehicle id="371" depart="742.00">
        <route edges="-gneE2 gneE1 gneE12 -gneE5 gneE3"/>
    </vehicle>
    <vehicle id="372" depart="744.00">
        <route edges="-gneE14 -gneE12 -gneE1 -gneE0 gneE8"/>
    </vehicle>
    <vehicle id="373" depart="746.00">
        <route edges="gneE12 gneE14"/>
    </vehicle>
    <vehicle id="375" depart="750.00">
        <route edges="-gneE2 -gneE0 gneE9"/>
    </vehicle>
    <vehicle id="376" depart="752.00">
        <route edges="-gneE4 gneE5 gneE13"/>
    </vehicle>
    <vehicle id="377" depart="754.00">
        <route edges="gneE5 -gneE12 -gneE1 gneE2 gneE3"/>
    </vehicle>
    <vehicle id="378" depart="756.00">
        <route edges="-gneE6 -gneE3 gneE5 -gneE12 gneE10"/>
    </vehicle>
    <vehicle id="382" depart="764.00">
        <route edges="-gneE6 -gneE3 -gneE2 -gneE0 gneE8"/>
    </vehicle>
    <vehicle id="383" depart="766.00">
        <route edges="-gneE4 gneE5 -gneE12 -gneE1 gneE2 gneE3"/>
    </vehicle>
    <vehicle id="384" depart="768.00">
        <route edges="-gneE10 -gneE1 -gneE0 gneE9"/>
    </vehicle>
    <vehicle id="387" depart="774.00">
        <route edges="-gneE7 -gneE3 gneE5 -gneE12 -gneE1"/>
    </vehicle>
    <vehicle id="388" depart="776.00">
        <route edges="gneE5 -gneE12 -gneE1 -gneE0 gneE8"/>
    </vehicle>
    <vehicle id="390" depart="780.00">
        <route edges="gneE12"/>
    </vehicle>
    <vehicle id="392" depart="784.00">
        <route edges="-gneE14 -gneE12 -gneE1 gneE2 gneE3 gneE6"/>
    </vehicle>
    <vehicle id="394" depart="788.00">
        <route edges="-gneE7 -gneE3 -gneE2 gneE1"/>
    </vehicle>
    <vehicle id="396" depart="792.00">
        <route edges="gneE2 gneE3 gneE7"/>
    </vehicle>
    <vehicle id="398" depart="796.00">
        <route edges="-gneE4 -gneE2 -gneE0 gneE8"/>
    </vehicle>
    <vehicle id="399" depart="798.00">
        <route edges="-gneE6 -gneE3 gneE5 -gneE12 -gneE1 gneE2 gneE3 gneE6"/>
    </vehicle>
    <vehicle id="401" depart="802.00">
        <route edges="-gneE7 -gneE3 -gneE2 -gneE0 gneE9"/>
    </vehicle>
    <vehicle id="404" depart="808.00">
        <route edges="-gneE7 -gneE3 gneE5 gneE13"/>
    </vehicle>
    <vehicle id="406" depart="812.00">
        <route edges="-gneE12 -gneE1 gneE2 gneE3"/>
    </vehicle>
    <vehicle id="407" depart="814.00">
        <route edges="-gneE7 -gneE3"/>
    </vehicle>
    <vehicle id="408" depart="816.00">
        <route edges="gneE1 gneE12 -gneE5 -gneE2 -gneE0"/>
    </vehicle>
    <vehicle id="409" depart="818.00">
        <route edges="gneE0 gneE2 gneE4"/>
    </vehicle>
    <vehicle id="410" depart="820.00">
        <route edges="gneE12 -gneE5 -gneE2 gneE1"/>
    </vehicle>
    <vehicle id="411" depart="822.00">
        <route edges="-gneE9 gneE0 gneE2 gneE3 gneE6"/>
    </vehicle>
    <vehicle id="414" depart="828.00">
        <route edges="-gneE7 -gneE3 gneE5 -gneE12 -gneE1 gneE2 gneE3 gneE7"/>
    </vehicle>
    <vehicle id="416" depart="832.00">
        <route edges="-gneE6 -gneE3 -gneE2 gneE1 gneE12"/>
    </vehicle>
    <vehicle id="417" depart="834.00">
        <route edges="gneE0 gneE1 gneE10"/>
    </vehicle>
    <vehicle id="418" depart="836.00">
        <route edges="-gneE9 gneE0 gneE1 gneE12 -gneE5 -gneE2"/>
    </vehicle>
    <vehicle id="419" depart="838.00">
        <route edges="-gneE5 -gneE2 -gneE0 gneE9"/>
    </vehicle>
    <vehicle id="420" depart="840.00">
        <route edges="-gneE2 gneE1 gneE12 -gneE5 gneE3"/>
    </vehicle>
    <vehicle id="421" depart="842.00">
        <route edges="-gneE8 gneE0 gneE2 gneE3 gneE7"/>
    </vehicle>
    <vehicle id="422" depart="844.00">
        <route edges="gneE2 gneE3 gneE7"/>
    </vehicle>
    <vehicle id="426" depart="852.00">
        <route edges="-gneE1 gneE2"/>
    </vehicle>
    <vehicle id="428" depart="856.00">
        <route edges="gneE0 gneE1 gneE10"/>
    </vehicle>
    <vehicle id="429" depart="858.00">
        <route edges="-gneE1 gneE2"/>
    </vehicle>
    <vehicle id="431" depart="862.00">
        <route edges="-gneE9 gneE8"/>
    </vehicle>
    <vehicle id="435" depart="870.00">
        <route edges="-gneE7 -gneE3 gneE5"/>
    </vehicle>
    <vehicle id="436" depart="872.00">
        <route edges="-gneE12 -gneE1"/>
    </vehicle>
    <vehicle id="437" depart="874.00">
        <route edges="gneE2"/>
    </vehicle>