<?xml version="1.0" encoding="UTF-8"?>

<!-- generated on 2021-10-24 15:56:39 by Eclipse SUMO netedit Version 1.10.0
<configuration xmlns:xsi="http://www.w3.org/2001/XMLSchema-instance" xsi:noNamespaceSchemaLocation="http://sumo.dlr.de/xsd/netconvertConfiguration.xsd">

    <input>
        <sumo-net-file value="C:\Users\bai\Desktop\sumo16\tools\cps_multi.net.xml"/>
    </input>

    <output>
        <output-file value="C:\Users\bai\Desktop\sumo16\tools\cps_multi.net.xml"/>
    </output>

    <processing>
        <geometry.min-radius.fix.railways value="false"/>
        <geometry.max-grade.fix value="false"/>
        <offset.disable-normalization value="true"/>
        <lefthand value="false"/>
    </processing>

    <junctions>
        <no-turnarounds value="true"/>
        <junctions.corner-detail value="5"/>
        <junctions.limit-turn-speed value="5.5"/>
        <rectangular-lane-cut value="false"/>
    </junctions>

    <pedestrian>
        <walkingareas value="false"/>
    </pedestrian>

    <report>
        <aggregate-warnings value="5"/>
    </report>

</configuration>
-->

<net version="1.9" junctionCornerDetail="5" limitTurnSpeed="5.50" xmlns:xsi="http://www.w3.org/2001/XMLSchema-instance" xsi:noNamespaceSchemaLocation="http://sumo.dlr.de/xsd/net_file.xsd">

    <location netOffset="0.00,0.00" convBoundary="-474.21,-451.79,495.85,450.68" origBoundary="-10000000000.00,-10000000000.00,10000000000.00,10000000000.00" projParameter="!"/>

    <edge id=":gneJ0_0" function="internal">
        <lane id=":gneJ0_0_0" index="0" speed="13.89" length="21.71" shape="-217.75,-274.50 -237.35,-283.60"/>
        <lane id=":gneJ0_0_1" index="1" speed="13.89" length="21.71" shape="-217.75,-274.50 -223.22,-277.37 -226.94,-280.23 -230.60,-283.21 -235.90,-286.45"/>
    </edge>
    <edge id=":gneJ0_2" function="internal">
        <lane id=":gneJ0_2_0" index="0" speed="9.74" length="22.64" shape="-216.50,-277.45 -222.50,-280.85 -225.97,-284.90 -226.89,-289.61 -225.29,-294.99"/>
        <lane id=":gneJ0_2_1" index="1" speed="9.15" length="19.87" shape="-216.50,-277.45 -221.21,-280.29 -223.77,-283.92 -224.18,-288.34 -222.43,-293.55"/>
    </edge>
    <edge id=":gneJ0_4" function="internal">
        <lane id=":gneJ0_4_0" index="0" speed="6.36" length="9.04" shape="-216.71,-290.67 -217.51,-288.30 -217.32,-286.29 -216.16,-284.64 -214.02,-283.35"/>
        <lane id=":gneJ0_4_1" index="1" speed="7.19" length="11.85" shape="-216.71,-290.67 -218.13,-287.04 -218.36,-284.12 -217.40,-281.91 -215.26,-280.40"/>
    </edge>
    <edge id=":gneJ0_6" function="internal">
        <lane id=":gneJ0_6_0" index="0" speed="9.91" length="22.39" shape="-219.57,-292.11 -223.32,-286.33 -227.54,-282.99 -232.21,-282.08 -237.35,-283.60"/>
        <lane id=":gneJ0_6_1" index="1" speed="9.33" length="19.73" shape="-219.57,-292.11 -222.69,-287.58 -226.46,-285.13 -230.86,-284.75 -235.90,-286.45"/>
    </edge>
    <edge id=":gneJ0_8" function="internal">
        <lane id=":gneJ0_8_0" index="0" speed="6.61" length="9.37" shape="-232.99,-292.15 -230.64,-291.37 -228.57,-291.59 -226.79,-292.79 -225.29,-294.99"/>
        <lane id=":gneJ0_8_1" index="1" speed="7.40" length="12.04" shape="-232.99,-292.15 -229.39,-290.74 -226.43,-290.50 -224.11,-291.44 -222.43,-293.55"/>
    </edge>
    <edge id=":gneJ0_10" function="internal">
        <lane id=":gneJ0_10_0" index="0" speed="13.89" length="21.25" shape="-234.45,-289.30 -228.79,-287.00 -224.35,-286.08 -219.85,-285.28 -214.02,-283.35"/>
        <lane id=":gneJ0_10_1" index="1" speed="13.89" length="21.25" shape="-234.45,-289.30 -215.26,-280.40"/>
    </edge>
    <edge id=":gneJ1_0" function="internal">
        <lane id=":gneJ1_0_0" index="0" speed="13.89" length="21.17" shape="34.57,-168.43 15.11,-176.40"/>
        <lane id=":gneJ1_0_1" index="1" speed="13.89" length="21.17" shape="34.57,-168.43 29.10,-171.15 25.43,-173.82 21.78,-176.53 16.35,-179.35"/>
    </edge>
    <edge id=":gneJ1_2" function="internal">
        <lane id=":gneJ1_2_0" index="0" speed="9.96" length="22.11" shape="35.75,-171.40 29.92,-174.54 26.36,-178.42 25.06,-183.03 26.03,-188.37"/>
        <lane id=":gneJ1_2_1" index="1" speed="9.39" length="19.54" shape="35.75,-171.40 31.23,-174.03 28.60,-177.55 27.86,-181.96 29.03,-187.27"/>
    </edge>
    <edge id=":gneJ1_4" function="internal">
        <lane id=":gneJ1_4_0" index="0" speed="6.69" length="9.42" shape="35.04,-185.06 34.45,-182.46 34.77,-180.30 35.99,-178.60 38.12,-177.34"/>
        <lane id=":gneJ1_4_1" index="1" speed="7.50" length="12.09" shape="35.04,-185.06 33.96,-181.14 33.92,-178.06 34.91,-175.80 36.94,-174.37"/>
    </edge>
    <edge id=":gneJ1_6" function="internal">
        <lane id=":gneJ1_6_0" index="0" speed="9.77" length="22.43" shape="32.03,-186.17 28.96,-180.07 25.12,-176.41 20.50,-175.19 15.11,-176.40"/>
        <lane id=":gneJ1_6_1" index="1" speed="9.19" length="19.71" shape="32.03,-186.17 29.45,-181.38 25.98,-178.65 21.61,-177.97 16.35,-179.35"/>
    </edge>
    <edge id=":gneJ1_8" function="internal">
        <lane id=":gneJ1_8_0" index="0" speed="6.41" length="9.04" shape="18.84,-185.25 21.25,-184.62 23.25,-184.93 24.84,-186.18 26.03,-188.37"/>
        <lane id=":gneJ1_8_1" index="1" speed="7.23" length="11.81" shape="18.84,-185.25 22.54,-184.08 25.48,-184.03 27.64,-185.09 29.03,-187.27"/>
    </edge>
    <edge id=":gneJ1_10" function="internal">
        <lane id=":gneJ1_10_0" index="0" speed="13.89" length="21.04" shape="17.60,-182.30 23.38,-180.41 27.83,-179.75 32.29,-179.13 38.12,-177.34"/>
        <lane id=":gneJ1_10_1" index="1" speed="13.89" length="21.04" shape="17.60,-182.30 36.94,-174.37"/>
    </edge>
    <edge id=":gneJ2_0" function="internal">
        <lane id=":gneJ2_0_0" index="0" speed="6.26" length="9.05" shape="112.31,-378.59 109.93,-379.41 107.94,-379.21 106.34,-378.00 105.14,-375.79"/>
        <lane id=":gneJ2_0_1" index="1" speed="7.10" length="11.96" shape="112.31,-378.59 108.66,-380.03 105.75,-380.22 103.58,-379.18 102.14,-376.89"/>
    </edge>
    <edge id=":gneJ2_2" function="internal">
        <lane id=":gneJ2_2_0" index="0" speed="10.34" length="22.29" shape="113.77,-381.43 107.83,-385.23 104.13,-389.39 102.67,-393.90 103.45,-398.77"/>
        <lane id=":gneJ2_2_1" index="1" speed="9.77" length="19.79" shape="113.77,-381.43 109.09,-384.61 106.31,-388.37 105.43,-392.71 106.44,-397.64"/>
    </edge>
    <edge id=":gneJ2_4" function="internal">
        <lane id=":gneJ2_4_0" index="0" speed="7.20" length="10.30" shape="112.43,-395.38 111.98,-392.96 112.54,-390.77 114.11,-388.83 116.69,-387.13"/>
        <lane id=":gneJ2_4_1" index="1" speed="7.92" length="12.69" shape="112.43,-395.38 111.46,-391.65 111.60,-388.56 112.86,-386.10 115.23,-384.28"/>
    </edge>
    <edge id=":gneJ2_6" function="internal">
        <lane id=":gneJ2_6_0" index="0" speed="13.89" length="21.08" shape="109.44,-396.51 107.76,-390.64 107.26,-386.16 106.77,-381.67 105.14,-375.79"/>
        <lane id=":gneJ2_6_1" index="1" speed="13.89" length="21.08" shape="109.44,-396.51 102.14,-376.89"/>
    </edge>
    <edge id=":gneJ2_8" function="internal">
        <lane id=":gneJ2_8_0" index="0" speed="13.89" length="21.13" shape="96.13,-379.10 103.45,-398.77"/>
        <lane id=":gneJ2_8_1" index="1" speed="13.89" length="21.13" shape="96.13,-379.10 98.70,-384.64 101.26,-388.38 103.83,-392.11 106.44,-397.64"/>
    </edge>
    <edge id=":gneJ2_10" function="internal">
        <lane id=":gneJ2_10_0" index="0" speed="9.67" length="23.17" shape="99.13,-377.99 102.34,-384.29 106.33,-387.91 111.11,-388.86 116.69,-387.13"/>
        <lane id=":gneJ2_10_1" index="1" speed="9.08" length="20.30" shape="99.13,-377.99 101.83,-382.97 105.41,-385.68 109.88,-386.12 115.23,-384.28"/>
    </edge>
    <edge id=":gneJ3_0" function="internal">
        <lane id=":gneJ3_0_0" index="0" speed="6.17" length="9.05" shape="282.01,-70.54 279.52,-71.03 277.59,-70.55 276.24,-69.10 275.46,-66.68"/>
        <lane id=":gneJ3_0_1" index="1" speed="7.02" length="12.05" shape="282.01,-70.54 278.17,-71.47 275.27,-71.22 273.32,-69.81 272.30,-67.22"/>
        <lane id=":gneJ3_0_2" index="2" speed="7.80" length="15.17" shape="282.01,-70.54 276.82,-71.91 272.95,-71.90 270.39,-70.51 269.15,-67.76"/>
    </edge>
    <edge id=":gneJ3_3" function="internal">
        <lane id=":gneJ3_3_0" index="0" speed="13.89" length="28.43" shape="282.01,-70.54 255.31,-80.51"/>
        <lane id=":gneJ3_3_1" index="1" speed="13.89" length="28.43" shape="283.07,-73.56 256.50,-83.48"/>
    </edge>
    <edge id=":gneJ3_5" function="internal">
        <lane id=":gneJ3_5_0" index="0" speed="10.68" length="27.34" shape="283.07,-73.56 276.71,-76.98 270.80,-82.19 266.88,-88.00 266.50,-93.22"/>
        <lane id=":gneJ3_5_1" index="1" speed="10.45" length="26.11" shape="283.07,-73.56 275.24,-77.16 270.36,-81.43 268.43,-86.37 269.45,-91.98"/>
        <lane id=":gneJ3_5_2" index="2" speed="9.89" length="23.25" shape="283.07,-73.56 276.56,-76.69 272.61,-80.59 271.22,-85.27 272.40,-90.74"/>
    </edge>
    <edge id=":gneJ3_8" function="internal">
        <lane id=":gneJ3_8_0" index="0" speed="6.58" length="9.70" shape="281.25,-87.01 280.67,-84.58 281.13,-82.53 282.64,-80.87 285.19,-79.60"/>
        <lane id=":gneJ3_8_1" index="1" speed="7.37" length="12.44" shape="281.25,-87.01 280.13,-83.28 280.24,-80.30 281.57,-78.07 284.13,-76.58"/>
    </edge>
    <edge id=":gneJ3_10" function="internal">
        <lane id=":gneJ3_10_0" index="0" speed="13.89" length="21.96" shape="281.25,-87.01 278.86,-81.19 277.48,-77.10 276.54,-72.88 275.46,-66.68"/>
        <lane id=":gneJ3_10_1" index="1" speed="13.89" length="21.96" shape="278.30,-88.25 275.83,-82.23 274.40,-78.00 273.42,-73.64 272.30,-67.22"/>
        <lane id=":gneJ3_10_2" index="2" speed="13.89" length="21.96" shape="275.35,-89.50 272.80,-83.27 271.32,-78.90 270.30,-74.39 269.15,-67.76"/>
    </edge>
    <edge id=":gneJ3_13" function="internal">
        <lane id=":gneJ3_13_0" index="0" speed="10.52" length="24.93" shape="275.35,-89.50 271.80,-83.48 267.28,-79.98 261.79,-78.99 255.31,-80.51"/>
        <lane id=":gneJ3_13_1" index="1" speed="10.00" length="22.42" shape="275.35,-89.50 272.34,-84.78 268.20,-82.20 262.92,-81.77 256.50,-83.48"/>
    </edge>
    <edge id=":gneJ3_15" function="internal">
        <lane id=":gneJ3_15_0" index="0" speed="6.76" length="9.67" shape="258.86,-89.43 261.28,-88.89 263.36,-89.34 265.10,-90.79 266.50,-93.22"/>
        <lane id=":gneJ3_15_1" index="1" speed="7.53" length="12.27" shape="258.86,-89.43 262.58,-88.37 265.58,-88.44 267.87,-89.64 269.45,-91.98"/>
        <lane id=":gneJ3_15_2" index="2" speed="8.28" length="15.04" shape="258.86,-89.43 263.88,-87.85 267.81,-87.54 270.65,-88.50 272.40,-90.74"/>
    </edge>
    <edge id=":gneJ3_18" function="internal">
        <lane id=":gneJ3_18_0" index="0" speed="13.89" length="28.17" shape="258.86,-89.43 285.19,-79.60"/>
        <lane id=":gneJ3_18_1" index="1" speed="13.89" length="28.17" shape="257.68,-86.45 284.13,-76.58"/>
    </edge>
    <edge id=":gneJ3_20" function="internal">
        <lane id=":gneJ3_20_0" index="0" speed="11.96" length="27.71" shape="257.68,-86.45 264.07,-82.82 270.04,-77.57 274.27,-71.82 275.46,-66.68"/>
        <lane id=":gneJ3_20_1" index="1" speed="11.67" length="26.31" shape="257.68,-86.45 264.88,-82.75 269.72,-78.31 272.19,-73.13 272.30,-67.22"/>
        <lane id=":gneJ3_20_2" index="2" speed="11.16" length="24.01" shape="257.68,-86.45 263.54,-83.24 267.41,-79.05 269.28,-73.89 269.15,-67.76"/>
    </edge>
    <edge id=":gneJ3_23" function="internal">
        <lane id=":gneJ3_23_0" index="0" speed="8.34" length="13.03" shape="259.69,-69.37 259.97,-73.37 259.34,-76.55 257.79,-78.93 255.31,-80.51"/>
        <lane id=":gneJ3_23_1" index="1" speed="9.05" length="15.48" shape="259.69,-69.37 260.26,-74.76 259.91,-78.91 258.66,-81.82 256.50,-83.48"/>
    </edge>
    <edge id=":gneJ3_25" function="internal">
        <lane id=":gneJ3_25_0" index="0" speed="13.89" length="24.17" shape="259.69,-69.37 260.95,-76.65 262.07,-81.59 263.70,-86.39 266.50,-93.22"/>
        <lane id=":gneJ3_25_1" index="1" speed="13.89" length="24.17" shape="262.84,-68.83 264.07,-75.89 265.15,-80.69 266.73,-85.35 269.45,-91.98"/>
        <lane id=":gneJ3_25_2" index="2" speed="13.89" length="24.17" shape="265.99,-68.30 267.19,-75.14 268.24,-79.80 269.77,-84.31 272.40,-90.74"/>
    </edge>
    <edge id=":gneJ3_28" function="internal">
        <lane id=":gneJ3_28_0" index="0" speed="10.15" length="26.52" shape="265.99,-68.30 268.28,-75.39 272.24,-79.63 277.88,-81.04 285.19,-79.60"/>
        <lane id=":gneJ3_28_1" index="1" speed="9.61" length="23.65" shape="265.99,-68.30 268.01,-74.00 271.71,-77.28 277.08,-78.14 284.13,-76.58"/>
    </edge>
    <edge id=":gneJ4_0" function="internal">
        <lane id=":gneJ4_0_0" index="0" speed="6.18" length="9.05" shape="207.70,330.16 205.66,328.64 203.72,328.24 201.87,328.96 200.11,330.80"/>
        <lane id=":gneJ4_0_1" index="1" speed="7.02" length="12.05" shape="207.70,330.16 204.63,327.66 201.92,326.63 199.54,327.05 197.51,328.94"/>
        <lane id=":gneJ4_0_2" index="2" speed="7.80" length="15.16" shape="207.70,330.16 203.61,326.69 200.12,325.02 197.21,325.15 194.90,327.09"/>
    </edge>
    <edge id=":gneJ4_3" function="internal">
        <lane id=":gneJ4_3_0" index="0" speed="13.89" length="28.91" shape="209.96,327.90 203.32,320.60 198.80,314.10 196.40,308.39 196.11,303.47"/>
        <lane id=":gneJ4_3_1" index="1" speed="13.89" length="27.15" shape="209.96,327.90 204.56,321.68 200.98,315.62 199.21,309.73 199.27,304.01"/>
        <lane id=":gneJ4_3_2" index="2" speed="13.89" length="24.10" shape="212.22,325.63 207.31,320.03 204.05,314.64 202.41,309.48 202.42,304.54"/>
    </edge>
    <edge id=":gneJ4_6" function="internal">
        <lane id=":gneJ4_6_0" index="0" speed="11.11" length="14.98" shape="211.88,306.16 212.02,308.73 213.26,311.71 215.58,315.08 219.01,318.84"/>
        <lane id=":gneJ4_6_1" index="1" speed="11.59" length="16.36" shape="211.88,306.16 211.64,310.33 212.36,314.21 214.07,317.80 216.74,321.11"/>
        <lane id=":gneJ4_6_2" index="2" speed="12.14" length="18.00" shape="211.88,306.16 211.25,311.92 211.47,316.71 212.55,320.52 214.48,323.37"/>
    </edge>
    <edge id=":gneJ4_9" function="internal">
        <lane id=":gneJ4_9_0" index="0" speed="13.89" length="26.06" shape="208.73,305.62 207.52,313.56 206.47,319.06 204.40,324.13 200.11,330.80"/>
        <lane id=":gneJ4_9_1" index="1" speed="13.89" length="26.06" shape="208.73,305.62 207.11,313.16 205.11,318.11 202.12,322.64 197.51,328.94"/>
        <lane id=":gneJ4_9_2" index="2" speed="13.89" length="26.06" shape="205.57,305.08 204.04,312.20 202.12,316.87 199.27,321.14 194.90,327.09"/>
    </edge>
    <edge id=":gneJ4_12" function="internal">
        <lane id=":gneJ4_12_0" index="0" speed="13.89" length="21.90" shape="187.07,321.53 190.72,316.63 193.15,313.14 194.81,309.33 196.11,303.47"/>
        <lane id=":gneJ4_12_1" index="1" speed="13.89" length="21.90" shape="189.68,323.38 193.57,318.14 196.14,314.39 197.88,310.29 199.27,304.01"/>
        <lane id=":gneJ4_12_2" index="2" speed="13.89" length="21.90" shape="189.68,323.38 194.18,318.10 197.80,314.69 200.55,310.91 202.42,304.54"/>
    </edge>
    <edge id=":gneJ4_15" function="internal">
        <lane id=":gneJ4_15_0" index="0" speed="11.77" length="35.99" shape="189.68,323.38 196.65,315.37 203.55,311.70 210.85,312.75 219.01,318.84"/>
        <lane id=":gneJ4_15_1" index="1" speed="10.79" length="30.08" shape="192.29,325.24 198.11,318.48 203.86,315.31 209.93,316.06 216.74,321.11"/>
        <lane id=":gneJ4_15_2" index="2" speed="10.16" length="26.50" shape="192.29,325.24 197.42,319.85 202.83,317.74 208.52,318.92 214.48,323.37"/>
    </edge>
    <edge id=":gneJ6_0" function="internal">
        <lane id=":gneJ6_0_0" index="0" speed="6.22" length="9.04" shape="356.99,-252.14 354.66,-253.11 352.66,-253.04 351.02,-251.92 349.71,-249.75"/>
        <lane id=":gneJ6_0_1" index="1" speed="7.07" length="11.99" shape="356.99,-252.14 353.43,-253.81 350.54,-254.18 348.32,-253.24 346.76,-250.99"/>
        <lane id=":gneJ6_0_2" index="2" speed="7.85" length="15.06" shape="356.99,-252.14 352.21,-254.51 348.42,-255.31 345.62,-254.55 343.81,-252.23"/>
    </edge>
    <edge id=":gneJ6_3" function="internal">
        <lane id=":gneJ6_3_0" index="0" speed="13.89" length="27.62" shape="356.99,-252.14 332.94,-265.51"/>
        <lane id=":gneJ6_3_1" index="1" speed="13.89" length="27.62" shape="358.63,-254.88 334.40,-268.36"/>
    </edge>
    <edge id=":gneJ6_5" function="internal">
        <lane id=":gneJ6_5_0" index="0" speed="10.88" length="26.95" shape="358.63,-254.88 353.03,-259.42 348.07,-265.51 345.04,-271.75 345.25,-276.70"/>
        <lane id=":gneJ6_5_1" index="1" speed="10.33" length="24.22" shape="358.63,-254.88 353.79,-258.96 349.74,-264.52 347.48,-270.31 348.01,-275.08"/>
        <lane id=":gneJ6_5_2" index="2" speed="10.04" length="22.81" shape="358.63,-254.88 352.93,-259.16 349.72,-263.68 349.00,-268.44 350.77,-273.46"/>
    </edge>
    <edge id=":gneJ6_8" function="internal">
        <lane id=":gneJ6_8_0" index="0" speed="6.80" length="9.89" shape="359.05,-268.60 358.17,-266.28 358.35,-264.13 359.60,-262.17 361.91,-260.38"/>
        <lane id=":gneJ6_8_1" index="1" speed="7.56" length="12.49" shape="359.05,-268.60 357.46,-265.07 357.13,-262.07 358.07,-259.59 360.27,-257.63"/>
    </edge>
    <edge id=":gneJ6_10" function="internal">
        <lane id=":gneJ6_10_0" index="0" speed="13.89" length="21.49" shape="359.05,-268.60 355.92,-263.19 353.91,-259.41 352.14,-255.51 349.71,-249.75"/>
        <lane id=":gneJ6_10_1" index="1" speed="13.89" length="21.49" shape="356.29,-270.22 353.10,-264.70 351.05,-260.84 349.24,-256.87 346.76,-250.99"/>
        <lane id=":gneJ6_10_2" index="2" speed="13.89" length="21.49" shape="353.53,-271.84 350.27,-266.21 348.19,-262.28 346.34,-258.22 343.81,-252.23"/>
    </edge>
    <edge id=":gneJ6_13" function="internal">
        <lane id=":gneJ6_13_0" index="0" speed="10.54" length="24.26" shape="353.53,-271.84 349.39,-266.58 344.57,-263.77 339.09,-263.41 332.94,-265.51"/>
        <lane id=":gneJ6_13_1" index="1" speed="10.02" length="21.84" shape="353.53,-271.84 350.09,-267.79 345.75,-265.86 340.52,-266.05 334.40,-268.36"/>
    </edge>
    <edge id=":gneJ6_15" function="internal">
        <lane id=":gneJ6_15_0" index="0" speed="6.77" length="9.42" shape="337.32,-274.05 339.65,-273.28 341.75,-273.46 343.62,-274.60 345.25,-276.70"/>
        <lane id=":gneJ6_15_1" index="1" speed="7.55" length="11.98" shape="337.32,-274.05 340.90,-272.63 343.87,-272.32 346.24,-273.14 348.01,-275.08"/>
        <lane id=":gneJ6_15_2" index="2" speed="8.31" length="14.70" shape="337.32,-274.05 342.14,-271.98 345.99,-271.19 348.86,-271.68 350.77,-273.46"/>
    </edge>
    <edge id=":gneJ6_18" function="internal">
        <lane id=":gneJ6_18_0" index="0" speed="13.89" length="28.04" shape="337.32,-274.05 361.91,-260.38"/>
        <lane id=":gneJ6_18_1" index="1" speed="13.89" length="28.04" shape="335.86,-271.21 360.27,-257.63"/>
    </edge>
    <edge id=":gneJ6_20" function="internal">
        <lane id=":gneJ6_20_0" index="0" speed="11.16" length="26.94" shape="335.86,-271.21 341.57,-267.05 346.56,-261.24 349.66,-255.05 349.71,-249.75"/>
        <lane id=":gneJ6_20_1" index="1" speed="10.89" length="25.62" shape="335.86,-271.21 342.53,-266.87 346.57,-262.06 347.98,-256.77 346.76,-250.99"/>
        <lane id=":gneJ6_20_2" index="2" speed="10.36" length="23.08" shape="335.86,-271.21 341.27,-267.50 344.40,-263.10 345.25,-258.01 343.81,-252.23"/>
    </edge>
    <edge id=":gneJ6_23" function="internal">
        <lane id=":gneJ6_23_0" index="0" speed="7.28" length="10.90" shape="334.96,-255.95 335.94,-259.18 335.93,-261.85 334.93,-263.96 332.94,-265.51"/>
        <lane id=":gneJ6_23_1" index="1" speed="8.06" length="13.57" shape="334.96,-255.95 336.50,-260.46 336.92,-264.04 336.22,-266.67 334.40,-268.36"/>
    </edge>
    <edge id=":gneJ6_25" function="internal">
        <lane id=":gneJ6_25_0" index="0" speed="13.89" length="22.77" shape="334.96,-255.95 337.64,-262.29 339.59,-266.58 341.80,-270.75 345.25,-276.70"/>
        <lane id=":gneJ6_25_1" index="1" speed="13.89" length="22.77" shape="337.91,-254.71 340.54,-260.93 342.46,-265.15 344.63,-269.23 348.01,-275.08"/>
        <lane id=":gneJ6_25_2" index="2" speed="13.89" length="22.77" shape="340.86,-253.47 343.44,-259.58 345.32,-263.71 347.45,-267.72 350.77,-273.46"/>
    </edge>
    <edge id=":gneJ6_28" function="internal">
        <lane id=":gneJ6_28_0" index="0" speed="10.18" length="26.16" shape="340.86,-253.47 344.63,-259.74 349.40,-262.98 355.16,-263.19 361.91,-260.38"/>
        <lane id=":gneJ6_28_1" index="1" speed="9.65" length="23.35" shape="340.86,-253.47 344.06,-258.45 348.36,-260.80 353.77,-260.53 360.27,-257.63"/>
    </edge>

    <edge id="-gneE0" from="gneJ1" to="gneJ0" priority="-1">
        <lane id="-gneE0_0" index="0" speed="13.89" length="252.68" shape="15.11,-176.40 -217.75,-274.50"/>
        <lane id="-gneE0_1" index="1" speed="13.89" length="252.68" shape="16.35,-179.35 -216.50,-277.45"/>
    </edge>
    <edge id="-gneE1" from="gneJ2" to="gneJ1" priority="-1">
        <lane id="-gneE1_0" index="0" speed="13.89" length="203.20" shape="105.14,-375.79 35.04,-185.06"/>
        <lane id="-gneE1_1" index="1" speed="13.89" length="203.20" shape="102.14,-376.89 32.03,-186.17"/>
    </edge>
    <edge id="-gneE10" from="gneJ12" to="gneJ2" priority="-1">
        <lane id="-gneE10_0" index="0" speed="13.89" length="58.49" shape="133.08,-450.10 112.43,-395.38"/>
        <lane id="-gneE10_1" index="1" speed="13.89" length="58.49" shape="130.09,-451.23 109.44,-396.51"/>
    </edge>
    <edge id="-gneE12" from="gneJ6" to="gneJ2" priority="-1">
        <lane id="-gneE12_0" index="0" speed="13.89" length="247.92" shape="332.94,-265.51 112.31,-378.59"/>
        <lane id="-gneE12_1" index="1" speed="13.89" length="247.92" shape="334.40,-268.36 113.77,-381.43"/>
    </edge>
    <edge id="-gneE13" from="gneJ16" to="gneJ6" priority="-1">
        <lane id="-gneE13_0" index="0" speed="13.89" length="202.55" shape="461.62,-443.26 359.05,-268.60"/>
        <lane id="-gneE13_1" index="1" speed="13.89" length="202.55" shape="458.86,-444.88 356.29,-270.22"/>
        <lane id="-gneE13_2" index="2" speed="13.89" length="202.55" shape="456.10,-446.50 353.53,-271.84"/>
    </edge>
    <edge id="-gneE14" from="gneJ17" to="gneJ6" priority="-1">
        <lane id="-gneE14_0" index="0" speed="13.89" length="158.86" shape="493.39,-170.70 356.99,-252.14"/>
        <lane id="-gneE14_1" index="1" speed="13.89" length="158.86" shape="495.03,-173.45 358.63,-254.88"/>
    </edge>
    <edge id="-gneE2" from="gneJ3" to="gneJ1" priority="-1">
        <lane id="-gneE2_0" index="0" speed="13.89" length="237.61" shape="255.31,-80.51 34.57,-168.43"/>
        <lane id="-gneE2_1" index="1" speed="13.89" length="237.61" shape="256.50,-83.48 35.75,-171.40"/>
    </edge>
    <edge id="-gneE3" from="gneJ4" to="gneJ3" priority="-1">
        <lane id="-gneE3_0" index="0" speed="13.89" length="378.22" shape="196.11,303.47 259.69,-69.37"/>
        <lane id="-gneE3_1" index="1" speed="13.89" length="378.22" shape="199.27,304.01 262.84,-68.83"/>
        <lane id="-gneE3_2" index="2" speed="13.89" length="378.22" shape="202.42,304.54 265.99,-68.30"/>
    </edge>
    <edge id="-gneE4" from="gneJ5" to="gneJ3" priority="-1">
        <lane id="-gneE4_0" index="0" speed="13.89" length="221.55" shape="491.07,2.81 282.01,-70.54"/>
        <lane id="-gneE4_1" index="1" speed="13.89" length="221.55" shape="492.13,-0.21 283.07,-73.56"/>
    </edge>
    <edge id="-gneE5" from="gneJ6" to="gneJ3" priority="-1">
        <lane id="-gneE5_0" index="0" speed="13.89" length="176.55" shape="349.71,-249.75 281.25,-87.01"/>
        <lane id="-gneE5_1" index="1" speed="13.89" length="176.55" shape="346.76,-250.99 278.30,-88.25"/>
        <lane id="-gneE5_2" index="2" speed="13.89" length="176.55" shape="343.81,-252.23 275.35,-89.50"/>
    </edge>
    <edge id="-gneE6" from="gneJ7" to="gneJ4" priority="-1">
        <lane id="-gneE6_0" index="0" speed="13.89" length="152.78" shape="98.54,446.04 187.07,321.53"/>
        <lane id="-gneE6_1" index="1" speed="13.89" length="152.78" shape="101.15,447.90 189.68,323.38"/>
        <lane id="-gneE6_2" index="2" speed="13.89" length="152.78" shape="103.76,449.75 192.29,325.24"/>
    </edge>
    <edge id="-gneE7" from="gneJ8" to="gneJ4" priority="-1">
        <lane id="-gneE7_0" index="0" speed="13.89" length="177.69" shape="333.39,455.76 207.70,330.16"/>
        <lane id="-gneE7_1" index="1" speed="13.89" length="177.69" shape="335.65,453.50 209.96,327.90"/>
        <lane id="-gneE7_2" index="2" speed="13.89" length="177.69" shape="337.91,451.23 212.22,325.63"/>
    </edge>
    <edge id="-gneE8" from="gneJ10" to="gneJ0" priority="-1">
        <lane id="-gneE8_0" index="0" speed="13.89" length="268.27" shape="-472.03,-413.94 -232.99,-292.15"/>
        <lane id="-gneE8_1" index="1" speed="13.89" length="268.27" shape="-473.48,-411.09 -234.45,-289.30"/>
    </edge>
    <edge id="-gneE9" from="gneJ11" to="gneJ0" priority="-1">
        <lane id="-gneE9_0" index="0" speed="13.89" length="177.48" shape="-136.90,-449.19 -216.71,-290.67"/>
        <lane id="-gneE9_1" index="1" speed="13.89" length="177.48" shape="-139.76,-450.63 -219.57,-292.11"/>
    </edge>
    <edge id="gneE0" from="gneJ0" to="gneJ1" priority="-1">
        <lane id="gneE0_0" index="0" speed="13.89" length="252.68" shape="-214.02,-283.35 18.84,-185.25"/>
        <lane id="gneE0_1" index="1" speed="13.89" length="252.68" shape="-215.26,-280.40 17.60,-182.30"/>
    </edge>
    <edge id="gneE1" from="gneJ1" to="gneJ2" priority="-1">
        <lane id="gneE1_0" index="0" speed="13.89" length="203.20" shape="26.03,-188.37 96.13,-379.10"/>
        <lane id="gneE1_1" index="1" speed="13.89" length="203.20" shape="29.03,-187.27 99.13,-377.99"/>
    </edge>
    <edge id="gneE10" from="gneJ2" to="gneJ12" priority="-1">
        <lane id="gneE10_0" index="0" speed="13.89" length="58.49" shape="103.45,-398.77 124.10,-453.48"/>
        <lane id="gneE10_1" index="1" speed="13.89" length="58.49" shape="106.44,-397.64 127.09,-452.35"/>
    </edge>
    <edge id="gneE12" from="gneJ2" to="gneJ6" priority="-1">
        <lane id="gneE12_0" index="0" speed="13.89" length="247.92" shape="116.69,-387.13 337.32,-274.05"/>
        <lane id="gneE12_1" index="1" speed="13.89" length="247.92" shape="115.23,-384.28 335.86,-271.21"/>
    </edge>
    <edge id="gneE13" from="gneJ6" to="gneJ16" priority="-1">
        <lane id="gneE13_0" index="0" speed="13.89" length="202.55" shape="345.25,-276.70 447.82,-451.36"/>
        <lane id="gneE13_1" index="1" speed="13.89" length="202.55" shape="348.01,-275.08 450.58,-449.74"/>
        <lane id="gneE13_2" index="2" speed="13.89" length="202.55" shape="350.77,-273.46 453.34,-448.12"/>
    </edge>
    <edge id="gneE14" from="gneJ6" to="gneJ17" priority="-1">
        <lane id="gneE14_0" index="0" speed="13.89" length="158.86" shape="361.91,-260.38 498.31,-178.94"/>
        <lane id="gneE14_1" index="1" speed="13.89" length="158.86" shape="360.27,-257.63 496.67,-176.19"/>
    </edge>
    <edge id="gneE2" from="gneJ1" to="gneJ3" priority="-1">
        <lane id="gneE2_0" index="0" speed="13.89" length="237.61" shape="38.12,-177.34 258.86,-89.43"/>
        <lane id="gneE2_1" index="1" speed="13.89" length="237.61" shape="36.94,-174.37 257.68,-86.45"/>
    </edge>
    <edge id="gneE3" from="gneJ3" to="gneJ4" priority="-1">
        <lane id="gneE3_0" index="0" speed="13.89" length="378.22" shape="275.46,-66.68 211.88,306.16"/>
        <lane id="gneE3_1" index="1" speed="13.89" length="378.22" shape="272.30,-67.22 208.73,305.62"/>
        <lane id="gneE3_2" index="2" speed="13.89" length="378.22" shape="269.15,-67.76 205.57,305.08"/>
    </edge>
    <edge id="gneE4" from="gneJ3" to="gneJ5" priority="-1">
        <lane id="gneE4_0" index="0" speed="13.89" length="221.55" shape="285.19,-79.60 494.25,-6.25"/>
        <lane id="gneE4_1" index="1" speed="13.89" length="221.55" shape="284.13,-76.58 493.19,-3.23"/>
    </edge>
    <edge id="gneE5" from="gneJ3" to="gneJ6" priority="-1">
        <lane id="gneE5_0" index="0" speed="13.89" length="176.55" shape="266.50,-93.22 334.96,-255.95"/>
        <lane id="gneE5_1" index="1" speed="13.89" length="176.55" shape="269.45,-91.98 337.91,-254.71"/>
        <lane id="gneE5_2" index="2" speed="13.89" length="176.55" shape="272.40,-90.74 340.86,-253.47"/>
    </edge>
    <edge id="gneE6" from="gneJ4" to="gneJ7" priority="-1">
        <lane id="gneE6_0" index="0" speed="13.89" length="152.78" shape="200.11,330.80 111.58,455.32"/>
        <lane id="gneE6_1" index="1" speed="13.89" length="152.78" shape="197.51,328.94 108.97,453.46"/>
        <lane id="gneE6_2" index="2" speed="13.89" length="152.78" shape="194.90,327.09 106.36,451.61"/>
    </edge>
    <edge id="gneE7" from="gneJ4" to="gneJ8" priority="-1">
        <lane id="gneE7_0" index="0" speed="13.89" length="177.69" shape="219.01,318.84 344.69,444.44"/>
        <lane id="gneE7_1" index="1" speed="13.89" length="177.69" shape="216.74,321.11 342.43,446.70"/>
        <lane id="gneE7_2" index="2" speed="13.89" length="177.69" shape="214.48,323.37 340.17,448.97"/>
    </edge>
    <edge id="gneE8" from="gneJ0" to="gneJ10" priority="-1">
        <lane id="gneE8_0" index="0" speed="13.89" length="268.27" shape="-237.35,-283.60 -476.39,-405.38"/>
        <lane id="gneE8_1" index="1" speed="13.89" length="268.27" shape="-235.90,-286.45 -474.94,-408.23"/>
    </edge>
    <edge id="gneE9" from="gneJ0" to="gneJ11" priority="-1">
        <lane id="gneE9_0" index="0" speed="13.89" length="177.48" shape="-225.29,-294.99 -145.48,-453.51"/>