<routes>
  <vType id="type_0" length="5.0" width="2.0" accel="2.0" decel="4.5" minGap="2.5" maxSpeed="11.11" tau="2.0" emergencyDecel="4.5"/>
  <trip id="vehicle_0" depart="7" from="road_1_2_3" to="road_1_1_3" color="cyan" type="type_0" begin="7" end="7" period="5"/>
  <vType id="type_1" length="5.0" width="2.0" accel="2.0" decel="4.5" minGap="2.5" maxSpeed="11.11" tau="2.0" emergencyDecel="4.5"/>
  <trip id="vehicle_1" depart="7" from="road_1_2_3" to="road_1_1_0" color="cyan" type="type_1" begin="7" end="7" period="5"/>
  <vType id="type_2" length="5.0" width="2.0" accel="2.0" decel="4.5" minGap="2.5" maxSpeed="11.11" tau="2.0" emergencyDecel="4.5"/>
  <trip id="vehicle_2" depart="8" from="road_1_2_3" to="road_1_1_3" color="cyan" type="type_2" begin="8" end="8" period="5"/>
  <vType id="type_3" length="5.0" width="2.0" accel="2.0" decel="4.5" minGap="2.5" maxSpeed="11.11" tau="2.0" emergencyDecel="4.5"/>
  <trip id="vehicle_3" depart="9" from="road_2_1_2" to="road_1_1_2" color="cyan" type="type_3" begin="9" end="9" period="5"/>
  <vType id="type_4" length="5.0" width="2.0" accel="2.0" decel="4.5" minGap="2.5" maxSpeed="11.11" tau="2.0" emergencyDecel="4.5"/>
  <trip id="vehicle_4" depart="9" from="road_1_0_1" to="road_1_1_1" color="cyan" type="type_4" begin="9" end="9" period="5"/>
  <vType id="type_5" length="5.0" width="2.0" accel="2.0" decel="4.5" minGap="2.5" maxSpeed="11.11" tau="2.0" emergencyDecel="4.5"/>
  <trip id="vehicle_5" depart="10" from="road_1_2_3" to="road_1_1_3" color="cyan" type="type_5" begin="10" end="10" period="5"/>
  <vType id="type_6" length="5.0" width="2.0" accel="2.0" decel="4.5" minGap="2.5" maxSpeed="11.11" tau="2.0" emergencyDecel="4.5"/>
  <trip id="vehicle_6" depart="13" from="road_1_2_3" to="road_1_1_3" color="cyan" type="type_6" begin="13" end="13" period="5"/>
  <vType id="type_7" length="5.0" width="2.0" accel="2.0" decel="4.5" minGap="2.5" maxSpeed="11.11" tau="2.0" emergencyDecel="4.5"/>
  <trip id="vehicle_7" depart="13" from="road_1_0_1" to="road_1_1_1" color="cyan" type="type_7" begin="13" end="13" period="5"/>
  <vType id="type_8" length="5.0" width="2.0" accel="2.0" decel="4.5" minGap="2.5" maxSpeed="11.11" tau="2.0" emergencyDecel="4.5"/>
  <trip id="vehicle_8" depart="14" from="road_1_0_1" to="road_1_1_1" color="cyan" type="type_8" begin="14" end="14" period="5"/>
  <vType id="type_9" length="5.0" width="2.0" accel="2.0" decel="4.5" minGap="2.5" maxSpeed="11.11" tau="2.0" emergencyDecel="4.5"/>
  <trip id="vehicle_9" depart="16" from="road_2_1_2" to="road_1_1_2" color="cyan" type="type_9" begin="16" end="16" period="5"/>
  <vType id="type_10" length="5.0" width="2.0" accel="2.0" decel="4.5" minGap="2.5" maxSpeed="11.11" tau="2.0" emergencyDecel="4.5"/>
  <trip id="vehicle_10" depart="17" from="road_1_0_1" to="road_1_1_1" color="cyan" type="type_10" begin="17" end="17" period="5"/>
  <vType id="type_11" length="5.0" width="2.0" accel="2.0" decel="4.5" minGap="2.5" maxSpeed="11.11" tau="2.0" emergencyDecel="4.5"/>
  <trip id="vehicle_11" depart="22" from="road_1_0_1" to="road_1_1_1" color="cyan" type="type_11" begin="22" end="22" period="5"/>
  <vType id="type_12" length="5.0" width="2.0" accel="2.0" decel="4.5" minGap="2.5" maxSpeed="11.11" tau="2.0" emergencyDecel="4.5"/>
  <trip id="vehicle_12" depart="24" from="road_1_0_1" to="road_1_1_1" color="cyan" type="type_12" begin="24" end="24" period="5"/>
  <vType id="type_13" length="5.0" width="2.0" accel="2.0" decel="4.5" minGap="2.5" maxSpeed="11.11" tau="2.0" emergencyDecel="4.5"/>
  <trip id="vehicle_13" depart="24" from="road_1_0_1" to="road_1_1_2" color="cyan" type="type_13" begin="24" end="24" period="5"/>
  <vType id="type_14" length="5.0" width="2.0" accel="2.0" decel="4.5" minGap="2.5" maxSpeed="11.11" tau="2.0" emergencyDecel="4.5"/>
  <trip id="vehicle_14" depart="28" from="road_2_1_2" to="road_1_1_2" color="cyan" type="type_14" begin="28" end="28" period="5"/>
  <vType id="type_15" length="5.0" width="2.0" accel="2.0" decel="4.5" minGap="2.5" maxSpeed="11.11" tau="2.0" emergencyDecel="4.5"/>
  <trip id="vehicle_15" depart="30" from="road_2_1_2" to="road_1_1_2" color="cyan" type="type_15" begin="30" end="30" period="5"/>
  <vType id="type_16" length="5.0" width="2.0" accel="2.0" decel="4.5" minGap="2.5" maxSpeed="11.11" tau="2.0" emergencyDecel="4.5"/>
  <trip id="vehicle_16" depart="32" from="road_1_2_3" to="road_1_1_3" color="cyan" type="type_16" begin="32" end="32" period="5"/>
  <vType id="type_17" length="5.0" width="2.0" accel="2.0" decel="4.5" minGap="2.5" maxSpeed="11.11" tau="2.0" emergencyDecel="4.5"/>
  <trip id="vehicle_17" depart="33" from="road_2_1_2" to="road_1_1_2" color="cyan" type="type_17" begin="33" end="33" period="5"/>
  <vType id="type_18" length="5.0" width="2.0" accel="2.0" decel="4.5" minGap="2.5" maxSpeed="11.11" tau="2.0" emergencyDecel="4.5"/>
  <trip id="vehicle_18" depart="33" from="road_2_1_2" to="road_1_1_3" color="cyan" type="type_18" begin="33" end="33" period="5"/>
  <vType id="type_19" length="5.0" width="2.0" accel="2.0" decel="4.5" minGap="2.5" maxSpeed="11.11" tau="2.0" emergencyDecel="4.5"/>
  <trip id="vehicle_19" depart="36" from="road_2_1_2" to="road_1_1_2" color="cyan" type="type_19" begin="36" end="36" period="5"/>
  <vType id="type_20" length="5.0" width="2.0" accel="2.0" decel="4.5" minGap="2.5" maxSpeed="11.11" tau="2.0" emergencyDecel="4.5"/>
  <trip id="vehicle_20" depart="37" from="road_2_1_2" to="road_1_1_2" color="cyan" type="type_20" begin="37" end="37" period="5"/>
  <vType id="type_21" length="5.0" width="2.0" accel="2.0" decel="4.5" minGap="2.5" maxSpeed="11.11" tau="2.0" emergencyDecel="4.5"/>
  <trip id="vehicle_21" depart="37" from="road_2_1_2" to="road_1_1_3" color="cyan" type="type_21" begin="37" end="37" period="5"/>
  <vType id="type_22" length="5.0" width="2.0" accel="2.0" decel="4.5" minGap="2.5" maxSpeed="11.11" tau="2.0" emergencyDecel="4.5"/>
  <trip id="vehicle_22" depart="38" from="road_2_1_2" to="road_1_1_2" color="cyan" type="type_22" begin="38" end="38" period="5"/>
  <vType id="type_23" length="5.0" width="2.0" accel="2.0" decel="4.5" minGap="2.5" maxSpeed="11.11" tau="2.0" emergencyDecel="4.5"/>
  <trip id="vehicle_23" depart="41" from="road_1_2_3" to="road_1_1_3" color="cyan" type="type_23" begin="41" end="41" period="5"/>
  <vType id="type_24" length="5.0" width="2.0" accel="2.0" decel="4.5" minGap="2.5" maxSpeed="11.11" tau="2.0" emergencyDecel="4.5"/>
  <trip id="vehicle_24" depart="45" from="road_2_1_2" to="road_1_1_2" color="cyan" type="type_24" begin="45" end="45" period="5"/>
  <vType id="type_25" length="5.0" width="2.0" accel="2.0" decel="4.5" minGap="2.5" maxSpeed="11.11" tau="2.0" emergencyDecel="4.5"/>
  <trip id="vehicle_25" depart="45" from="road_1_0_1" to="road_1_1_1" color="cyan" type="type_25" begin="45" end="45" period="5"/>
  <vType id="type_26" length="5.0" width="2.0" accel="2.0" decel="4.5" minGap="2.5" maxSpeed="11.11" tau="2.0" emergencyDecel="4.5"/>
  <trip id="vehicle_26" depart="49" from="road_0_1_0" to="road_1_1_0" color="cyan" type="type_26" begin="49" end="49" period="5"/>
  <vType id="type_27" length="5.0" width="2.0" accel="2.0" decel="4.5" minGap="2.5" maxSpeed="11.11" tau="2.0" emergencyDecel="4.5"/>
  <trip id="vehicle_27" depart="49" from="road_0_1_0" to="road_1_1_1" color="cyan" type="type_27" begin="49" end="49" period="5"/>
  <vType id="type_28" length="5.0" width="2.0" accel="2.0" decel="4.5" minGap="2.5" maxSpeed="11.11" tau="2.0" emergencyDecel="4.5"/>
  <trip id="vehicle_28" depart="49" from="road_0_1_0" to="road_1_1_0" color="cyan" type="type_28" begin="49" end="49" period="5"/>
  <vType id="type_29" length="5.0" width="2.0" accel="2.0" decel="4.5" minGap="2.5" maxSpeed="11.11" tau="2.0" emergencyDecel="4.5"/>
  <trip id="vehicle_29" depart="50" from="road_0_1_0" to="road_1_1_0" color="cyan" type="type_29" begin="50" end="50" period="5"/>
  <vType id="type_30" length="5.0" width="2.0" accel="2.0" decel="4.5" minGap="2.5" maxSpeed="11.11" tau="2.0" emergencyDecel="4.5"/>
  <trip id="vehicle_30" depart="51" from="road_2_1_2" to="road_1_1_2" color="cyan" type="type_30" begin="51" end="51" period="5"/>
  <vType id="type_31" length="5.0" width="2.0" accel="2.0" decel="4.5" minGap="2.5" maxSpeed="11.11" tau="2.0" emergencyDecel="4.5"/>
  <trip id="vehicle_31" depart="53" from="road_2_1_2" to="road_1_1_2" color="cyan" type="type_31" begin="53" end="53" period="5"/>
  <vType id="type_32" length="5.0" width="2.0" accel="2.0" decel="4.5" minGap="2.5" maxSpeed="11.11" tau="2.0" emergencyDecel="4.5"/>
  <trip id="vehicle_32" depart="53" from="road_0_1_0" to="road_1_1_0" color="cyan" type="type_32" begin="53" end="53" period="5"/>
  <vType id="type_33" length="5.0" width="2.0" accel="2.0" decel="4.5" minGap="2.5" maxSpeed="11.11" tau="2.0" emergencyDecel="4.5"/>
  <trip id="vehicle_33" depart="53" from="road_0_1_0" to="road_1_1_1" color="cyan" type="type_33" begin="53" end="53" period="5"/>
  <vType id="type_34" length="5.0" width="2.0" accel="2.0" decel="4.5" minGap="2.5" maxSpeed="11.11" tau="2.0" emergencyDecel="4.5"/>
  <trip id="vehicle_34" depart="55" from="road_2_1_2" to="road_1_1_2" color="cyan" type="type_34" begin="55" end="55" period="5"/>
  <vType id="type_35" length="5.0" width="2.0" accel="2.0" decel="4.5" minGap="2.5" maxSpeed="11.11" tau="2.0" emergencyDecel="4.5"/>
  <trip id="vehicle_35" depart="56" from="road_1_0_1" to="road_1_1_1" color="cyan" type="type_35" begin="56" end="56" period="5"/>
  <vType id="type_36" length="5.0" width="2.0" accel="2.0" decel="4.5" minGap="2.5" maxSpeed="11.11" tau="2.0" emergencyDecel="4.5"/>
  <trip id="vehicle_36" depart="57" from="road_2_1_2" to="road_1_1_2" color="cyan" type="type_36" begin="57" end="57" period="5"/>
  <vType id="type_37" length="5.0" width="2.0" accel="2.0" decel="4.5" minGap="2.5" maxSpeed="11.11" tau="2.0" emergencyDecel="4.5"/>
  <trip id="vehicle_37" depart="57" from="road_0_1_0" to="road_1_1_0" color="cyan" type="type_37" begin="57" end="57" period="5"/>
  <vType id="type_38" length="5.0" width="2.0" accel="2.0" decel="4.5" minGap="2.5" maxSpeed="11.11" tau="2.0" emergencyDecel="4.5"/>
  <trip id="vehicle_38" depart="62" from="road_0_1_0" to="road_1_1_0" color="cyan" type="type_38" begin="62" end="62" period="5"/>
  <vType id="type_39" length="5.0" width="2.0" accel="2.0" decel="4.5" minGap="2.5" maxSpeed="11.11" tau="2.0" emergencyDecel="4.5"/>
  <trip id="vehicle_39" depart="62" from="road_0_1_0" to="road_1_1_1" color="cyan" type="type_39" begin="62" end="62" period="5"/>
  <vType id="type_40" length="5.0" width="2.0" accel="2.0" decel="4.5" minGap="2.5" maxSpeed="11.11" tau="2.0" emergencyDecel="4.5"/>
  <trip id="vehicle_40" depart="64" from="road_1_0_1" to="road_1_1_1" color="cyan" type="type_40" begin="64" end="64" period="5"/>
  <vType id="type_41" length="5.0" width="2.0" accel="2.0" decel="4.5" minGap="2.5" maxSpeed="11.11" tau="2.0" emergencyDecel="4.5"/>
  <trip id="vehicle_41" depart="65" from="road_0_1_0" to="road_1_1_0" color="cyan" type="type_41" begin="65" end="65" period="5"/>
  <vType id="type_42" length="5.0" width="2.0" accel="2.0" decel="4.5" minGap="2.5" maxSpeed="11.11" tau="2.0" emergencyDecel="4.5"/>
  <trip id="vehicle_42" depart="65" from="road_0_1_0" to="road_1_1_0" color="cyan" type="type_42" begin="65" end="65" period="5"/>
  <vType id="type_43" length="5.0" width="2.0" accel="2.0" decel="4.5" minGap="2.5" maxSpeed="11.11" tau="2.0" emergencyDecel="4.5"/>
  <trip id="vehicle_43" depart="65" from="road_0_1_0" to="road_1_1_1" color="cyan" type="type_43" begin="65" end="65" period="5"/>
  <vType id="type_44" length="5.0" width="2.0" accel="2.0" decel="4.5" minGap="2.5" maxSpeed="11.11" tau="2.0" emergencyDecel="4.5"/>
  <trip id="vehicle_44" depart="65" from="road_0_1_0" to="road_1_1_0" color="cyan" type="type_44" begin="65" end="65" period="5"/>
  <vType id="type_45" length="5.0" width="2.0" accel="2.0" decel="4.5" minGap="2.5" maxSpeed="11.11" tau="2.0" emergencyDecel="4.5"/>
  <trip id="vehicle_45" depart="70" from="road_2_1_2" to="road_1_1_2" color="cyan" type="type_45" begin="70" end="70" period="5"/>
  <vType id="type_46" length="5.0" width="2.0" accel="2.0" decel="4.5" minGap="2.5" maxSpeed="11.11" tau="2.0" emergencyDecel="4.5"/>
  <trip id="vehicle_46" depart="71" from="road_0_1_0" to="road_1_1_0" color="cyan" type="type_46" begin="71" end="71" period="5"/>
  <vType id="type_47" length="5.0" width="2.0" accel="2.0" decel="4.5" minGap="2.5" maxSpeed="11.11" tau="2.0" emergencyDecel="4.5"/>
  <trip id="vehicle_47" depart="73" from="road_0_1_0" to="road_1_1_0" color="cyan" type="type_47" begin="73" end="73" period="5"/>
  <vType id="type_48" length="5.0" width="2.0" accel="2.0" decel="4.5" minGap="2.5" maxSpeed="11.11" tau="2.0" emergencyDecel="4.5"/>
  <trip id="vehicle_48" depart="73" from="road_0_1_0" to="road_1_1_0" color="cyan" type="type_48" begin="73" end="73" period="5"/>
  <vType id="type_49" length="5.0" width="2.0" accel="2.0" decel="4.5" minGap="2.5" maxSpeed="11.11" tau="2.0" emergencyDecel="4.5"/>
  <trip id="vehicle_49" depart="74" from="road_2_1_2" to="road_1_1_2" color="cyan" type="type_49" begin="74" end="74" period="5"/>
  <vType id="type_50" length="5.0" width="2.0" accel="2.0" decel="4.5" minGap="2.5" maxSpeed="11.11" tau="2.0" emergencyDecel="4.5"/>
  <trip id="vehicle_50" depart="74" from="road_2_1_2" to="road_1_1_3" color="cyan" type="type_50" begin="74" end="74" period="5"/>
  <vType id="type_51" length="5.0" width="2.0" accel="2.0" decel="4.5" minGap="2.5" maxSpeed="11.11" tau="2.0" emergencyDecel="4.5"/>
  <trip id="vehicle_51" depart="75" from="road_2_1_2" to="road_1_1_2" color="cyan" type="type_51" begin="75" end="75" period="5"/>
  <vType id="type_52" length="5.0" width="2.0" accel="2.0" decel="4.5" minGap="2.5" maxSpeed="11.11" tau="2.0" emergencyDecel="4.5"/>
  <trip id="vehicle_52" depart="77" from="road_2_1_2" to="road_1_1_2" color="cyan" type="type_52" begin="77" end="77" period="5"/>
  <vType id="type_53" length="5.0" width="2.0" accel="2.0" decel="4.5" minGap="2.5" maxSpeed="11.11" tau="2.0" emergencyDecel="4.5"/>
  <trip id="vehicle_53" depart="77" from="road_0_1_0" to="road_1_1_0" color="cyan" type="type_53" begin="77" end="77" period="5"/>
  <vType id="type_54" length="5.0" width="2.0" accel="2.0" decel="4.5" minGap="2.5" maxSpeed="11.11" tau="2.0" emergencyDecel="4.5"/>
  <trip id="vehicle_54" depart="77" from="road_0_1_0" to="road_1_1_0" color="cyan" type="type_54" begin="77" end="77" period="5"/>
  <vType id="type_55" length="5.0" width="2.0" accel="2.0" decel="4.5" minGap="2.5" maxSpeed="11.11" tau="2.0" emergencyDecel="4.5"/>
  <trip id="vehicle_55" depart="78" from="road_2_1_2" to="road_1_1_2" color="cyan" type="type_55" begin="78" end="78" period="5"/>
  <vType id="type_56" length="5.0" width="2.0" accel="2.0" decel="4.5" minGap="2.5" maxSpeed="11.11" tau="2.0" emergencyDecel="4.5"/>
  <trip id="vehicle_56" depart="80" from="road_0_1_0" to="road_1_1_0" color="cyan" type="type_56" begin="80" end="80" period="5"/>
  <vType id="type_57" length="5.0" width="2.0" accel="2.0" decel="4.5" minGap="2.5" maxSpeed="11.11" tau="2.0" emergencyDecel="4.5"/>
  <trip id="vehicle_57" depart="81" from="road_0_1_0" to="road_1_1_0" color="cyan" type="type_57" begin="81" end="81" period="5"/>
  <vType id="type_58" length="5.0" width="2.0" accel="2.0" decel="4.5" minGap="2.5" maxSpeed="11.11" tau="2.0" emergencyDecel="4.5"/>
  <trip id="vehicle_58" depart="81" from="road_2_1_2" to="road_1_1_2" color="cyan" type="type_58" begin="81" end="81" period="5"/>
  <vType id="type_59" length="5.0" width="2.0" accel="2.0" decel="4.5" minGap="2.5" maxSpeed="11.11" tau="2.0" emergencyDecel="4.5"/>
  <trip id="vehicle_59" depart="82" from="road_0_1_0" to="road_1_1_0" color="cyan" type="type_59" begin="82" end="82" period="5"/>
  <vType id="type_60" length="5.0" width="2.0" accel="2.0" decel="4.5" minGap="2.5" maxSpeed="11.11" tau="2.0" emergencyDecel="4.5"/>
  <trip id="vehicle_60" depart="89" from="road_0_1_0" to="road_1_1_0" color="cyan" type="type_60" begin="89" end="89" period="5"/>
  <vType id="type_61" length="5.0" width="2.0" accel="2.0" decel="4.5" minGap="2.5" maxSpeed="11.11" tau="2.0" emergencyDecel="4.5"/>
  <trip id="vehicle_61" depart="93" from="road_2_1_2" to="road_1_1_2" color="cyan" type="type_61" begin="93" end="93" period="5"/>
  <vType id="type_62" length="5.0" width="2.0" accel="2.0" decel="4.5" minGap="2.5" maxSpeed="11.11" tau="2.0" emergencyDecel="4.5"/>
  <trip id="vehicle_62" depart="94" from="road_0_1_0" to="road_1_1_0" color="cyan" type="type_62" begin="94" end="94" period="5"/>
  <vType id="type_63" length="5.0" width="2.0" accel="2.0" decel="4.5" minGap="2.5" maxSpeed="11.11" tau="2.0" emergencyDecel="4.5"/>
  <trip id="vehicle_63" depart="95" from="road_2_1_2" to="road_1_1_2" color="cyan" type="type_63" begin="95" end="95" period="5"/>
  <vType id="type_64" length="5.0" width="2.0" accel="2.0" decel="4.5" minGap="2.5" maxSpeed="11.11" tau="2.0" emergencyDecel="4.5"/>
  <trip id="vehicle_64" depart="96" from="road_2_1_2" to="road_1_1_2" color="cyan" type="type_64" begin="96" end="96" period="5"/>
  <vType id="type_65" length="5.0" width="2.0" accel="2.0" decel="4.5" minGap="2.5" maxSpeed="11.11" tau="2.0" emergencyDecel="4.5"/>
  <trip id="vehicle_65" depart="97" from="road_0_1_0" to="road_1_1_0" color="cyan" type="type_65" begin="97" end="97" period="5"/>
  <vType id="type_66" length="5.0" width="2.0" accel="2.0" decel="4.5" minGap="2.5" maxSpeed="11.11" tau="2.0" emergencyDecel="4.5"/>
  <trip id="vehicle_66" depart="98" from="road_0_1_0" to="road_1_1_0" color="cyan" type="type_66" begin="98" end="98" period="5"/>
  <vType id="type_67" length="5.0" width="2.0" accel="2.0" decel="4.5" minGap="2.5" maxSpeed="11.11" tau="2.0" emergencyDecel="4.5"/>
  <trip id="vehicle_67" depart="100" from="road_2_1_2" to="road_1_1_2" color="cyan" type="type_67" begin="100" end="100" period="5"/>
  <vType id="type_68" length="5.0" width="2.0" accel="2.0" decel="4.5" minGap="2.5" maxSpeed="11.11" tau="2.0" emergencyDecel="4.5"/>
  <trip id="vehicle_68" depart="100" from="road_2_1_2" to="road_1_1_2" color="cyan" type="type_68" begin="100" end="100" period="5"/>
  <vType id="type_69" length="5.0" width="2.0" accel="2.0" decel="4.5" minGap="2.5" maxSpeed="11.11" tau="2.0" emergencyDecel="4.5"/>
  <trip id="vehicle_69" depart="103" from="road_2_1_2" to="road_1_1_2" color="cyan" type="type_69" begin="103" end="103" period="5"/>
  <vType id="type_70" length="5.0" width="2.0" accel="2.0" decel="4.5" minGap="2.5" maxSpeed="11.11" tau="2.0" emergencyDecel="4.5"/>
  <trip id="vehicle_70" depart="104" from="road_0_1_0" to="road_1_1_0" color="cyan" type="type_70" begin="104" end="104" period="5"/>
  <vType id="type_71" length="5.0" width="2.0" accel="2.0" decel="4.5" minGap="2.5" maxSpeed="11.11" tau="2.0" emergencyDecel="4.5"/>
  <trip id="vehicle_71" depart="104" from="road_0_1_0" to="road_1_1_1" color="cyan" type="type_71" begin="104" end="104" period="5"/>
  <vType id="type_72" length="5.0" width="2.0" accel="2.0" decel="4.5" minGap="2.5" maxSpeed="11.11" tau="2.0" emergencyDecel="4.5"/>
  <trip id="vehicle_72" depart="105" from="road_0_1_0" to="road_1_1_0" color="cyan" type="type_72" begin="105" end="105" period="5"/>
  <vType id="type_73" length="5.0" width="2.0" accel="2.0" decel="4.5" minGap="2.5" maxSpeed="11.11" tau="2.0" emergencyDecel="4.5"/>
  <trip id="vehicle_73" depart="105" from="road_0_1_0" to="road_1_1_0" color="cyan" type="type_73" begin="105" end="105" period="5"/>
  <vType id="type_74" length="5.0" width="2.0" accel="2.0" decel="4.5" minGap="2.5" maxSpeed="11.11" tau="2.0" emergencyDecel="4.5"/>
  <trip id="vehicle_74" depart="106" from="road_0_1_0" to="road_1_1_0" color="cyan" type="type_74" begin="106" end="106" period="5"/>
  <vType id="type_75" length="5.0" width="2.0" accel="2.0" decel="4.5" minGap="2.5" maxSpeed="11.11" tau="2.0" emergencyDecel="4.5"/>
  <trip id="vehicle_75" depart="109" from="road_2_1_2" to="road_1_1_2" color="cyan" type="type_75" begin="109" end="109" period="5"/>
  <vType id="type_76" length="5.0" width="2.0" accel="2.0" decel="4.5" minGap="2.5" maxSpeed="11.11" tau="2.0" emergencyDecel="4.5"/>
  <trip id="vehicle_76" depart="109" from="road_0_1_0" to="road_1_1_0" color="cyan" type="type_76" begin="109" end="109" period="5"/>
  <vType id="type_77" length="5.0" width="2.0" accel="2.0" decel="4.5" minGap="2.5" maxSpeed="11.11" tau="2.0" emergencyDecel="4.5"/>
  <trip id="vehicle_77" depart="110" from="road_2_1_2" to="road_1_1_2" color="cyan" type="type_77" begin="110" end="110" period="5"/>
  <vType id="type_78" length="5.0" width="2.0" accel="2.0" decel="4.5" minGap="2.5" maxSpeed="11.11" tau="2.0" emergencyDecel="4.5"/>
  <trip id="vehicle_78" depart="110" from="road_2_1_2" to="road_1_1_3" color="cyan" type="type_78" begin="110" end="110" period="5"/>
  <vType id="type_79" length="5.0" width="2.0" accel="2.0" decel="4.5" minGap="2.5" maxSpeed="11.11" tau="2.0" emergencyDecel="4.5"/>
  <trip id="vehicle_79" depart="110" from="road_2_1_2" to="road_1_1_2" color="cyan" type="type_79" begin="110" end="110" period="5"/>
  <vType id="type_80" length="5.0" width="2.0" accel="2.0" decel="4.5" minGap="2.5" maxSpeed="11.11" tau="2.0" emergencyDecel="4.5"/>
  <trip id="vehicle_80" depart="112" from="road_2_1_2" to="road_1_1_2" color="cyan" type="type_80" begin="112" end="112" period="5"/>
  <vType id="type_81" length="5.0" width="2.0" accel="2.0" decel="4.5" minGap="2.5" maxSpeed="11.11" tau="2.0" emergencyDecel="4.5"/>
  <trip id="vehicle_81" depart="112" from="road_2_1_2" to="road_1_1_3" color="cyan" type="type_81" begin="112" end="112" period="5"/>
  <vType id="type_82" length="5.0" width="2.0" accel="2.0" decel="4.5" minGap="2.5" maxSpeed="11.11" tau="2.0" emergencyDecel="4.5"/>
  <trip id="vehicle_82" depart="112" from="road_2_1_2" to="road_1_1_2" color="cyan" type="type_82" begin="112" end="112" period="5"/>
  <vType id="type_83" length="5.0" width="2.0" accel="2.0" decel="4.5" minGap="2.5" maxSpeed="11.11" tau="2.0" emergencyDecel="4.5"/>
  <trip id="vehicle_83" depart="113" from="road_0_1_0" to="road_1_1_0" color="cyan" type="type_83" begin="113" end="113" period="5"/>
  <vType id="type_84" length="5.0" width="2.0" accel="2.0" decel="4.5" minGap="2.5" maxSpeed="11.11" tau="2.0" emergencyDecel="4.5"/>
  <trip id="vehicle_84" depart="113" from="road_2_1_2" to="road_1_1_2" color="cyan" type="type_84" begin="113" end="113" period="5"/>
  <vType id="type_85" length="5.0" width="2.0" accel="2.0" decel="4.5" minGap="2.5" maxSpeed="11.11" tau="2.0" emergencyDecel="4.5"/>
  <trip id="vehicle_85" depart="114" from="road_2_1_2" to="road_1_1_2" color="cyan" type="type_85" begin="114" end="114" period="5"/>
  <vType id="type_86" length="5.0" width="2.0" accel="2.0" decel="4.5" minGap="2.5" maxSpeed="11.11" tau="2.0" emergencyDecel="4.5"/>
  <trip id="vehicle_86" depart="116" from="road_2_1_2" to="road_1_1_2" color="cyan" type="type_86" begin="116" end="116" period="5"/>
  <vType id="type_87" length="5.0" width="2.0" accel="2.0" decel="4.5" minGap="2.5" maxSpeed="11.11" tau="2.0" emergencyDecel="4.5"/>
  <trip id="vehicle_87" depart="119" from="road_0_1_0" to="road_1_1_0" color="cyan" type="type_87" begin="119" end="119" period="5"/>
  <vType id="type_88" length="5.0" width="2.0" accel="2.0" decel="4.5" minGap="2.5" maxSpeed="11.11" tau="2.0" emergencyDecel="4.5"/>
  <trip id="vehicle_88" depart="130" from="road_1_0_1" to="road_1_1_1" color="cyan" type="type_88" begin="130" end="130" period="5"/>
  <vType id="type_89" length="5.0" width="2.0" accel="2.0" decel="4.5" minGap="2.5" maxSpeed="11.11" tau="2.0" emergencyDecel="4.5"/>
  <trip id="vehicle_89" depart="132" from="road_0_1_0" to="road_1_1_0" color="cyan" type="type_89" begin="132" end="132" period="5"/>
  <vType id="type_90" length="5.0" width="2.0" accel="2.0" decel="4.5" minGap="2.5" maxSpeed="11.11" tau="2.0" emergencyDecel="4.5"/>
  <trip id="vehicle_90" depart="134" from="road_0_1_0" to="road_1_1_0" color="cyan" type="type_90" begin="134" end="134" period="5"/>
  <vType id="type_91" length="5.0" width="2.0" accel="2.0" decel="4.5" minGap="2.5" maxSpeed="11.11" tau="2.0" emergencyDecel="4.5"/>
  <trip id="vehicle_91" depart="134" from="road_0_1_0" to="road_1_1_1" color="cyan" type="type_91" begin="134" end="134" period="5"/>
  <vType id="type_92" length="5.0" width="2.0" accel="2.0" decel="4.5" minGap="2.5" maxSpeed="11.11" tau="2.0" emergencyDecel="4.5"/>
  <trip id="vehicle_92" depart="135" from="road_0_1_0" to="road_1_1_0" color="cyan" type="type_92" begin="135" end="135" period="5"/>
  <vType id="type_93" length="5.0" width="2.0" accel="2.0" decel="4.5" minGap="2.5" maxSpeed="11.11" tau="2.0" emergencyDecel="4.5"/>
  <trip id="vehicle_93" depart="136" from="road_2_1_2" to="road_1_1_2" color="cyan" type="type_93" begin="136" end="136" period="5"/>
  <vType id="type_94" length="5.0" width="2.0" accel="2.0" decel="4.5" minGap="2.5" maxSpeed="11.11" tau="2.0" emergencyDecel="4.5"/>
  <trip id="vehicle_94" depart="136" from="road_0_1_0" to="road_1_1_0" color="cyan" type="type_94" begin="136" end="136" period="5"/>
  <vType id="type_95" length="5.0" width="2.0" accel="2.0" decel="4.5" minGap="2.5" maxSpeed="11.11" tau="2.0" emergencyDecel="4.5"/>
  <trip id="vehicle_95" depart="138" from="road_0_1_0" to="road_1_1_0" color="cyan" type="type_95" begin="138" end="138" period="5"/>
  <vType id="type_96" length="5.0" width="2.0" accel="2.0" decel="4.5" minGap="2.5" maxSpeed="11.11" tau="2.0" emergencyDecel="4.5"/>
  <trip id="vehicle_96" depart="142" from="road_1_2_3" to="road_1_1_3" color="cyan" type="type_96" begin="142" end="142" period="5"/>
  <vType id="type_97" length="5.0" width="2.0" accel="2.0" decel="4.5" minGap="2.5" maxSpeed="11.11" tau="2.0" emergencyDecel="4.5"/>
  <trip id="vehicle_97" depart="151" from="road_1_0_1" to="road_1_1_1" color="cyan" type="type_97" begin="151" end="151" period="5"/>
  <vType id="type_98" length="5.0" width="2.0" accel="2.0" decel="4.5" minGap="2.5" maxSpeed="11.11" tau="2.0" emergencyDecel="4.5"/>
  <trip id="vehicle_98" depart="157" from="road_1_2_3" to="road_1_1_3" color="cyan" type="type_98" begin="157" end="157" period="5"/>
  <vType id="type_99" length="5.0" width="2.0" accel="2.0" decel="4.5" minGap="2.5" maxSpeed="11.11" tau="2.0" emergencyDecel="4.5"/>
  <trip id="vehicle_99" depart="158" from="road_1_0_1" to="road_1_1_1" color="cyan" type="type_99" begin="158" end="158" period="5"/>
  <vType id="type_100" length="5.0" width="2.0" accel="2.0" decel="4.5" minGap="2.5" maxSpeed="11.11" tau="2.0" emergencyDecel="4.5"/>
  <trip id="vehicle_100" depart="162" from="road_1_0_1" to="road_1_1_1" color="cyan" type="type_100" begin="162" end="162" period="5"/>
  <vType id="type_101" length="5.0" width="2.0" accel="2.0" decel="4.5" minGap="2.5" maxSpeed="11.11" tau="2.0" emergencyDecel="4.5"/>
  <trip id="vehicle_101" depart="162" from="road_1_0_1" to="road_1_1_2" color="cyan" type="type_101" begin="162" end="162" period="5"/>
  <vType id="type_102" length="5.0" width="2.0" accel="2.0" decel="4.5" minGap="2.5" maxSpeed="11.11" tau="2.0" emergencyDecel="4.5"/>
  <trip id="vehicle_102" depart="165" from="road_1_0_1" to="road_1_1_1" color="cyan" type="type_102" begin="165" end="165" period="5"/>
  <vType id="type_103" length="5.0" width="2.0" accel="2.0" decel="4.5" minGap="2.5" maxSpeed="11.11" tau="2.0" emergencyDecel="4.5"/>
  <trip id="vehicle_103" depart="165" from="road_1_2_3" to="road_1_1_3" color="cyan" type="type_103" begin="165" end="165" period="5"/>
  <vType id="type_104" length="5.0" width="2.0" accel="2.0" decel="4.5" minGap="2.5" maxSpeed="11.11" tau="2.0" emergencyDecel="4.5"/>
  <trip id="vehicle_104" depart="177" from="road_1_2_3" to="road_1_1_3" color="cyan" type="type_104" begin="177" end="177" period="5"/>
  <vType id="type_105" length="5.0" width="2.0" accel="2.0" decel="4.5" minGap="2.5" maxSpeed="11.11" tau="2.0" emergencyDecel="4.5"/>
  <trip id="vehicle_105" depart="188" from="road_1_0_1" to="road_1_1_1" color="cyan" type="type_105" begin="188" end="188" period="5"/>
  <vType id="type_106" length="5.0" width="2.0" accel="2.0" decel="4.5" minGap="2.5" maxSpeed="11.11" tau="2.0" emergencyDecel="4.5"/>
  <trip id="vehicle_106" depart="191" from="road_1_0_1" to="road_1_1_1" color="cyan" type="type_106" begin="191" end="191" period="5"/>
  <vType id="type_107" length="5.0" width="2.0" accel="2.0" decel="4.5" minGap="2.5" maxSpeed="11.11" tau="2.0" emergencyDecel="4.5"/>
  <trip id="vehicle_107" depart="196" from="road_2_1_2" to="road_1_1_2" color="cyan" type="type_107" begin="196" end="196" period="5"/>
  <vType id="type_108" length="5.0" width="2.0" accel="2.0" decel="4.5" minGap="2.5" maxSpeed="11.11" tau="2.0" emergencyDecel="4.5"/>
  <trip id="vehicle_108" depart="197" from="road_1_0_1" to="road_1_1_1" color="cyan" type="type_108" begin="197" end="197" period="5"/>
  <vType id="type_109" length="5.0" width="2.0" accel="2.0" decel="4.5" minGap="2.5" maxSpeed="11.11" tau="2.0" emergencyDecel="4.5"/>
  <trip id="vehicle_109" depart="198" from="road_2_1_2" to="road_1_1_2" color="cyan" type="type_109" begin="198" end="198" period="5"/>
  <vType id="type_110" length="5.0" width="2.0" accel="2.0" decel="4.5" minGap="2.5" maxSpeed="11.11" tau="2.0" emergencyDecel="4.5"/>
  <trip id="vehicle_110" depart="199" from="road_2_1_2" to="road_1_1_2" color="cyan" type="type_110" begin="199" end="199" period="5"/>
  <vType id="type_111" length="5.0" width="2.0" accel="2.0" decel="4.5" minGap="2.5" maxSpeed="11.11" tau="2.0" emergencyDecel="4.5"/>
  <trip id="vehicle_111" depart="201" from="road_2_1_2" to="road_1_1_2" color="cyan" type="type_111" begin="201" end="201" period="5"/>
  <vType id="type_112" length="5.0" width="2.0" accel="2.0" decel="4.5" minGap="2.5" maxSpeed="11.11" tau="2.0" emergencyDecel="4.5"/>