<?xml version="1.0" encoding="UTF-8"?>

<!-- generated on 2021-10-24 09:54:00 by Eclipse SUMO duarouter Version 1.10.0
<configuration xmlns:xsi="http://www.w3.org/2001/XMLSchema-instance" xsi:noNamespaceSchemaLocation="http://sumo.dlr.de/xsd/duarouterConfiguration.xsd">

    <input>
        <net-file value="demo_T.net.xml"/>
        <route-files value="trips.trips.xml"/>
    </input>

    <output>
        <output-file value="demo_T.rou.xml"/>
        <alternatives-output value="demo_T.rou.alt.xml"/>
    </output>

    <time>
        <begin value="0"/>
        <end value="3600"/>
    </time>

    <report>
        <no-warnings value="true"/>
        <ignore-errors value="true"/>
        <no-step-log value="true"/>
    </report>

</configuration>
-->

<routes xmlns:xsi="http://www.w3.org/2001/XMLSchema-instance" xsi:noNamespaceSchemaLocation="http://sumo.dlr.de/xsd/routes_file.xsd">
    <vehicle id="0" depart="0.00">
        <route edges="-gneE2 -gneE0"/>
    </vehicle>
    <vehicle id="1" depart="2.00">
        <route edges="-gneE1 -gneE0"/>
    </vehicle>
    <vehicle id="2" depart="4.00">
        <route edges="gneE0 gneE2"/>
    </vehicle>
    <vehicle id="4" depart="8.00">
        <route edges="-gneE2 -gneE0"/>
    </vehicle>
    <vehicle id="6" depart="12.00">
        <route edges="-gneE1 -gneE0"/>
    </vehicle>
    <vehicle id="7" depart="14.00">
        <route edges="-gneE2 gneE1"/>
    </vehicle>
    <vehicle id="10" depart="20.00">
        <route edges="gneE0 gneE2"/>
    </vehicle>
    <vehicle id="11" depart="22.00">
        <route edges="-gneE2 -gneE0"/>
    </vehicle>
    <vehicle id="12" depart="24.00">
        <route edges="gneE0 gneE1"/>
    </vehicle>
    <vehicle id="13" depart="26.00">
        <route edges="-gneE1 -gneE0"/>
    </vehicle>
    <vehicle id="14" depart="28.00">
        <route edges="gneE0 gneE1"/>
    </vehicle>
    <vehicle id="15" depart="30.00">
        <route edges="gneE0 gneE2"/>
    </vehicle>
    <vehicle id="17" depart="34.00">
        <route edges="-gneE2 gneE1"/>
    </vehicle>
    <vehicle id="18" depart="36.00">
        <route edges="gneE0 gneE1"/>
    </vehicle>
    <vehicle id="19" depart="38.00">
        <route edges="gneE0 gneE1"/>
    </vehicle>
    <vehicle id="21" depart="42.00">
        <route edges="-gneE1 -gneE0"/>
    </vehicle>
    <vehicle id="22" depart="44.00">
        <route edges="-gneE1 -gneE0"/>
    </vehicle>
    <vehicle id="23" depart="46.00">
        <route edges="-gneE1 -gneE0"/>
    </vehicle>
    <vehicle id="24" depart="48.00">
        <route edges="-gneE2 gneE1"/>
    </vehicle>
    <vehicle id="25" depart="50.00">
        <route edges="-gneE2 -gneE0"/>
    </vehicle>
    <vehicle id="26" depart="52.00">
        <route edges="-gneE1 gneE2"/>
    </vehicle>
    <vehicle id="27" depart="54.00">
        <route edges="-gneE2 gneE1"/>
    </vehicle>
    <vehicle id="28" depart="56.00">
        <route edges="-gneE1 gneE2"/>
    </vehicle>
    <vehicle id="30" depart="60.00">
        <route edges="gneE0 gneE1"/>
    </vehicle>
    <vehicle id="32" depart="64.00">
        <route edges="gneE0 gneE2"/>
    </vehicle>
    <vehicle id="33" depart="66.00">
        <route edges="-gneE1 -gneE0"/>
    </vehicle>
    <vehicle id="34" depart="68.00">
        <route edges="-gneE1 -gneE0"/>
    </vehicle>
    <vehicle id="35" depart="70.00">
        <route edges="-gneE1 gneE2"/>
    </vehicle>
    <vehicle id="37" depart="74.00">
        <route edges="-gneE2 gneE1"/>
    </vehicle>
    <vehicle id="38" depart="76.00">
        <route edges="gneE0 gneE1"/>
    </vehicle>
    <vehicle id="39" depart="78.00">
        <route edges="-gneE1 -gneE0"/>
    </vehicle>
    <vehicle id="40" depart="80.00">
        <route edges="-gneE2 -gneE0"/>
    </vehicle>
    <vehicle id="42" depart="84.00">
        <route edges="-gneE2 -gneE0"/>
    </vehicle>
    <vehicle id="43" depart="86.00">
        <route edges="gneE0 gneE1"/>
    </vehicle>
    <vehicle id="44" depart="88.00">
        <route edges="-gneE1 -gneE0"/>
    </vehicle>
    <vehicle id="46" depart="92.00">
        <route edges="gneE0 gneE1"/>
    </vehicle>
    <vehicle id="48" depart="96.00">
        <route edges="gneE0 gneE1"/>
    </vehicle>
    <vehicle id="49" depart="98.00">
        <route edges="gneE0 gneE2"/>
    </vehicle>
    <vehicle id="50" depart="100.00">
        <route edges="-gneE1 gneE2"/>
    </vehicle>
    <vehicle id="51" depart="102.00">
        <route edges="gneE0 gneE1"/>
    </vehicle>
    <vehicle id="56" depart="112.00">
        <route edges="-gneE2 -gneE0"/>
    </vehicle>
    <vehicle id="57" depart="114.00">
        <route edges="gneE0 gneE2"/>
    </vehicle>
    <vehicle id="59" depart="118.00">
        <route edges="-gneE2 -gneE0"/>
    </vehicle>
    <vehicle id="60" depart="120.00">
        <route edges="gneE0 gneE1"/>
    </vehicle>
    <vehicle id="61" depart="122.00">
        <route edges="gneE0 gneE1"/>
    </vehicle>
    <vehicle id="62" depart="124.00">
        <route edges="-gneE1 -gneE0"/>
    </vehicle>
    <vehicle id="63" depart="126.00">
        <route edges="-gneE1 gneE2"/>
    </vehicle>
    <vehicle id="64" depart="128.00">
        <route edges="gneE0 gneE2"/>
    </vehicle>
    <vehicle id="65" depart="130.00">
        <route edges="-gneE1 -gneE0"/>
    </vehicle>
    <vehicle id="66" depart="132.00">
        <route edges="gneE0 gneE2"/>
    </vehicle>
    <vehicle id="68" depart="136.00">
        <route edges="-gneE1 gneE2"/>
    </vehicle>
    <vehicle id="70" depart="140.00">
        <route edges="-gneE2 gneE1"/>
    </vehicle>
    <vehicle id="71" depart="142.00">
        <route edges="-gneE1 gneE2"/>
    </vehicle>
    <vehicle id="72" depart="144.00">
        <route edges="-gneE2 -gneE0"/>
    </vehicle>
    <vehicle id="74" depart="148.00">
        <route edges="-gneE1 -gneE0"/>
    </vehicle>
    <vehicle id="75" depart="150.00">
        <route edges="gneE0 gneE1"/>
    </vehicle>
    <vehicle id="76" depart="152.00">
        <route edges="-gneE2 gneE1"/>
    </vehicle>
    <vehicle id="77" depart="154.00">
        <route edges="-gneE1 -gneE0"/>
    </vehicle>
    <vehicle id="78" depart="156.00">
        <route edges="-gneE2 gneE1"/>
    </vehicle>
    <vehicle id="79" depart="158.00">
        <route edges="-gneE1 -gneE0"/>
    </vehicle>
    <vehicle id="81" depart="162.00">
        <route edges="-gneE1 gneE2"/>
    </vehicle>
    <vehicle id="83" depart="166.00">
        <route edges="-gneE1 gneE2"/>
    </vehicle>
    <vehicle id="84" depart="168.00">
        <route edges="-gneE1 -gneE0"/>
    </vehicle>
    <vehicle id="85" depart="170.00">
        <route edges="gneE0 gneE1"/>
    </vehicle>
    <vehicle id="89" depart="178.00">
        <route edges="-gneE2 gneE1"/>
    </vehicle>
    <vehicle id="90" depart="180.00">
        <route edges="gneE0 gneE2"/>
    </vehicle>
    <vehicle id="92" depart="184.00">
        <route edges="-gneE2 gneE1"/>
    </vehicle>
    <vehicle id="95" depart="190.00">
        <route edges="-gneE2 -gneE0"/>
    </vehicle>
    <vehicle id="96" depart="192.00">
        <route edges="-gneE1 gneE2"/>
    </vehicle>
    <vehicle id="98" depart="196.00">
        <route edges="-gneE2 -gneE0"/>
    </vehicle>
    <vehicle id="99" depart="198.00">
        <route edges="gneE0 gneE2"/>
    </vehicle>
    <vehicle id="100" depart="200.00">
        <route edges="gneE0 gneE2"/>
    </vehicle>
    <vehicle id="102" depart="204.00">
        <route edges="-gneE2 -gneE0"/>
    </vehicle>
    <vehicle id="103" depart="206.00">
        <route edges="-gneE2 -gneE0"/>
    </vehicle>
    <vehicle id="105" depart="210.00">
        <route edges="-gneE1 gneE2"/>
    </vehicle>
    <vehicle id="106" depart="212.00">
        <route edges="-gneE2 gneE1"/>
    </vehicle>
    <vehicle id="107" depart="214.00">
        <route edges="gneE0 gneE2"/>
    </vehicle>
    <vehicle id="109" depart="218.00">
        <route edges="-gneE1 -gneE0"/>
    </vehicle>
    <vehicle id="110" depart="220.00">
        <route edges="gneE0 gneE1"/>
    </vehicle>
    <vehicle id="114" depart="228.00">
        <route edges="-gneE1 gneE2"/>
    </vehicle>
    <vehicle id="115" depart="230.00">
        <route edges="-gneE1 -gneE0"/>
    </vehicle>
    <vehicle id="117" depart="234.00">
        <route edges="-gneE1 -gneE0"/>
    </vehicle>
    <vehicle id="119" depart="238.00">
        <route edges="-gneE2 gneE1"/>
    </vehicle>
    <vehicle id="120" depart="240.00">
        <route edges="-gneE2 gneE1"/>
    </vehicle>
    <vehicle id="122" depart="244.00">
        <route edges="-gneE1 gneE2"/>
    </vehicle>
    <vehicle id="125" depart="250.00">
        <route edges="-gneE1 gneE2"/>
    </vehicle>
    <vehicle id="127" depart="254.00">
        <route edges="gneE0 gneE2"/>
    </vehicle>
    <vehicle id="128" depart="256.00">
        <route edges="-gneE1 -gneE0"/>
    </vehicle>
    <vehicle id="129" depart="258.00">
        <route edges="-gneE1 gneE2"/>
    </vehicle>
    <vehicle id="130" depart="260.00">
        <route edges="gneE0 gneE2"/>
    </vehicle>
    <vehicle id="131" depart="262.00">
        <route edges="-gneE2 -gneE0"/>
    </vehicle>
    <vehicle id="132" depart="264.00">
        <route edges="gneE0 gneE2"/>
    </vehicle>
    <vehicle id="134" depart="268.00">
        <route edges="-gneE2 -gneE0"/>
    </vehicle>
    <vehicle id="137" depart="274.00">
        <route edges="-gneE1 -gneE0"/>
    </vehicle>
    <vehicle id="141" depart="282.00">
        <route edges="-gneE2 -gneE0"/>
    </vehicle>
    <vehicle id="144" depart="288.00">
        <route edges="-gneE2 -gneE0"/>
    </vehicle>
    <vehicle id="145" depart="290.00">
        <route edges="-gneE1 gneE2"/>
    </vehicle>
    <vehicle id="146" depart="292.00">
        <route edges="-gneE2 -gneE0"/>
    </vehicle>
    <vehicle id="147" depart="294.00">
        <route edges="gneE0 gneE1"/>
    </vehicle>
    <vehicle id="148" depart="296.00">
        <route edges="-gneE2 -gneE0"/>
    </vehicle>
    <vehicle id="149" depart="298.00">
        <route edges="-gneE1 gneE2"/>
    </vehicle>
    <vehicle id="150" depart="300.00">
        <route edges="gneE0 gneE1"/>
    </vehicle>
    <vehicle id="151" depart="302.00">
        <route edges="gneE0 gneE1"/>
    </vehicle>
    <vehicle id="152" depart="304.00">
        <route edges="-gneE1 -gneE0"/>
    </vehicle>
    <vehicle id="153" depart="306.00">
        <route edges="-gneE1 gneE2"/>
    </vehicle>
    <vehicle id="154" depart="308.00">
        <route edges="gneE0 gneE2"/>
    </vehicle>
    <vehicle id="156" depart="312.00">
        <route edges="-gneE1 -gneE0"/>
    </vehicle>
    <vehicle id="157" depart="314.00">
        <route edges="gneE0 gneE2"/>
    </vehicle>
    <vehicle id="158" depart="316.00">
        <route edges="-gneE2 gneE1"/>
    </vehicle>
    <vehicle id="159" depart="318.00">
        <route edges="-gneE1 gneE2"/>
    </vehicle>
    <vehicle id="160" depart="320.00">
        <route edges="gneE0 gneE2"/>
    </vehicle>
    <vehicle id="161" depart="322.00">
        <route edges="gneE0 gneE2"/>
    </vehicle>
    <vehicle id="162" depart="324.00">
        <route edges="-gneE1 gneE2"/>
    </vehicle>
    <vehicle id="163" depart="326.00">
        <route edges="-gneE1 gneE2"/>
    </vehicle>
    <vehicle id="164" depart="328.00">
        <route edges="gneE0 gneE2"/>
    </vehicle>
    <vehicle id="167" depart="334.00">
        <route edges="gneE0 gneE2"/>
    </vehicle>
    <vehicle id="168" depart="336.00">
        <route edges="-gneE1 gneE2"/>
    </vehicle>
    <vehicle id="169" depart="338.00">
        <route edges="-gneE2 -gneE0"/>
    </vehicle>
    <vehicle id="171" depart="342.00">
        <route edges="-gneE1 -gneE0"/>
    </vehicle>
    <vehicle id="172" depart="344.00">
        <route edges="-gneE1 gneE2"/>
    </vehicle>
    <vehicle id="174" depart="348.00">
        <route edges="-gneE2 gneE1"/>
    </vehicle>
    <vehicle id="175" depart="350.00">
        <route edges="gneE0 gneE1"/>
    </vehicle>
    <vehicle id="181" depart="362.00">
        <route edges="-gneE2 gneE1"/>
    </vehicle>
    <vehicle id="182" depart="364.00">
        <route edges="-gneE2 gneE1"/>
    </vehicle>
    <vehicle id="183" depart="366.00">
        <route edges="-gneE1 gneE2"/>
    </vehicle>
    <vehicle id="184" depart="368.00">
        <route edges="-gneE1 gneE2"/>
    </vehicle>
    <vehicle id="186" depart="372.00">
        <route edges="gneE0 gneE2"/>
    </vehicle>
    <vehicle id="187" depart="374.00">
        <route edges="-gneE2 -gneE0"/>
    </vehicle>
    <vehicle id="188" depart="376.00">
        <route edges="-gneE2 -gneE0"/>
    </vehicle>
    <vehicle id="189" depart="378.00">
        <route edges="-gneE1 gneE2"/>
    </vehicle>
    <vehicle id="192" depart="384.00">
        <route edges="-gneE2 -gneE0"/>
    </vehicle>
    <vehicle id="194" depart="388.00">
        <route edges="gneE0 gneE2"/>
    </vehicle>
    <vehicle id="195" depart="390.00">
        <route edges="gneE0 gneE1"/>
    </vehicle>
    <vehicle id="197" depart="394.00">
        <route edges="-gneE1 -gneE0"/>
    </vehicle>
    <vehicle id="198" depart="396.00">
        <route edges="-gneE2 gneE1"/>
    </vehicle>
    <vehicle id="199" depart="398.00">
        <route edges="-gneE2 gneE1"/>
    </vehicle>
    <vehicle id="200" depart="400.00">
        <route edges="-gneE2 -gneE0"/>
    </vehicle>
    <vehicle id="204" depart="408.00">
        <route edges="-gneE2 gneE1"/>
    </vehicle>
    <vehicle id="205" depart="410.00">
        <route edges="gneE0 gneE2"/>
    </vehicle>
    <vehicle id="207" depart="414.00">
        <route edges="-gneE1 -gneE0"/>
    </vehicle>
    <vehicle id="210" depart="420.00">
        <route edges="-gneE2 gneE1"/>
    </vehicle>
    <vehicle id="211" depart="422.00">
        <route edges="-gneE1 gneE2"/>
    </vehicle>
    <vehicle id="212" depart="424.00">
        <route edges="-gneE2 -gneE0"/>
    </vehicle>
    <vehicle id="213" depart="426.00">
        <route edges="-gneE2 -gneE0"/>
    </vehicle>
    <vehicle id="214" depart="428.00">
        <route edges="gneE0 gneE2"/>
    </vehicle>
    <vehicle id="216" depart="432.00">
        <route edges="-gneE1 gneE2"/>
    </vehicle>
    <vehicle id="217" depart="434.00">
        <route edges="-gneE2 -gneE0"/>
    </vehicle>
    <vehicle id="218" depart="436.00">
        <route edges="-gneE1 gneE2"/>
    </vehicle>
    <vehicle id="220" depart="440.00">
        <route edges="gneE0 gneE2"/>
    </vehicle>
    <vehicle id="222" depart="444.00">
        <route edges="gneE0 gneE1"/>
    </vehicle>
    <vehicle id="223" depart="446.00">
        <route edges="gneE0 gneE1"/>
    </vehicle>
    <vehicle id="224" depart="448.00">
        <route edges="gneE0 gneE1"/>
    </vehicle>
    <vehicle id="225" depart="450.00">
        <route edges="gneE0 gneE2"/>
    </vehicle>
    <vehicle id="226" depart="452.00">
        <route edges="-gneE2 -gneE0"/>
    </vehicle>
    <vehicle id="228" depart="456.00">
        <route edges="gneE0 gneE1"/>
    </vehicle>
    <vehicle id="229" depart="458.00">
        <route edges="-gneE2 -gneE0"/>
    </vehicle>
    <vehicle id="230" depart="460.00">
        <route edges="-gneE1 -gneE0"/>
    </vehicle>
    <vehicle id="231" depart="462.00">
        <route edges="-gneE1 -gneE0"/>
    </vehicle>
    <vehicle id="232" depart="464.00">
        <route edges="-gneE2 -gneE0"/>
    </vehicle>
    <vehicle id="233" depart="466.00">
        <route edges="-gneE1 gneE2"/>
    </vehicle>
    <vehicle id="235" depart="470.00">
        <route edges="-gneE2 gneE1"/>
    </vehicle>
    <vehicle id="236" depart="472.00">
        <route edges="-gneE2 -gneE0"/>
    </vehicle>
    <vehicle id="239" depart="478.00">
        <route edges="gneE0 gneE2"/>
    </vehicle>
    <vehicle id="240" depart="480.00">
        <route edges="-gneE2 -gneE0"/>
    </vehicle>
    <vehicle id="242" depart="484.00">
        <route edges="gneE0 gneE2"/>
    </vehicle>
    <vehicle id="244" depart="488.00">
        <route edges="-gneE2 gneE1"/>
    </vehicle>
    <vehicle id="245" depart="490.00">
        <route edges="-gneE1 -gneE0"/>
    </vehicle>
    <vehicle id="246" depart="492.00">
        <route edges="-gneE2 -gneE0"/>
    </vehicle>
    <vehicle id="248" depart="496.00">
        <route edges="-gneE2 -gneE0"/>
    </vehicle>
    <vehicle id="249" depart="498.00">
        <route edges="-gneE2 -gneE0"/>
    </vehicle>
    <vehicle id="250" depart="500.00">
        <route edges="-gneE2 -gneE0"/>
    </vehicle>
    <vehicle id="251" depart="502.00">
        <route edges="-gneE2 gneE1"/>
    </vehicle>
    <vehicle id="255" depart="510.00">
        <route edges="-gneE1 -gneE0"/>
    </vehicle>
    <vehicle id="256" depart="512.00">
        <route edges="gneE0 gneE1"/>
    </vehicle>
    <vehicle id="257" depart="514.00">
        <route edges="gneE0 gneE2"/>
    </vehicle>
    <vehicle id="258" depart="516.00">
        <route edges="-gneE1 -gneE0"/>
    </vehicle>
    <vehicle id="260" depart="520.00">
        <route edges="gneE0 gneE1"/>
    </vehicle>
    <vehicle id="264" depart="528.00">
        <route edges="-gneE1 -gneE0"/>
    </vehicle>
    <vehicle id="265" depart="530.00">
        <route edges="-gneE1 gneE2"/>
    </vehicle>
    <vehicle id="266" depart="532.00">
        <route edges="-gneE2 -gneE0"/>
    </vehicle>
    <vehicle id="267" depart="534.00">
        <route edges="gneE0 gneE2"/>
    </vehicle>
    <vehicle id="270" depart="540.00">
        <route edges="gneE0 gneE2"/>
    </vehicle>
    <vehicle id="271" depart="542.00">
        <route edges="-gneE1 -gneE0"/>
    </vehicle>
    <vehicle id="272" depart="544.00">
        <route edges="-gneE1 gneE2"/>
    </vehicle>
    <vehicle id="273" depart="546.00">
        <route edges="gneE0 gneE1"/>
    </vehicle>
    <vehicle id="275" depart="550.00">
        <route edges="gneE0 gneE1"/>
    </vehicle>
    <vehicle id="276" depart="552.00">
        <route edges="-gneE1 gneE2"/>
    </vehicle>
    <vehicle id="277" depart="554.00">
        <route edges="gneE0 gneE1"/>
    </vehicle>
    <vehicle id="278" depart="556.00">
        <route edges="-gneE1 gneE2"/>
    </vehicle>
    <vehicle id="279" depart="558.00">
        <route edges="gneE0 gneE1"/>
    </vehicle>
    <vehicle id="280" depart="560.00">
        <route edges="-gneE2 gneE1"/>
    </vehicle>
    <vehicle id="281" depart="562.00">
        <route edges="-gneE2 gneE1"/>
    </vehicle>
    <vehicle id="282" depart="564.00">
        <route edges="gneE0 gneE2"/>
    </vehicle>
    <vehicle id="283" depart="566.00">
        <route edges="-gneE1 gneE2"/>
    </vehicle>
    <vehicle id="285" depart="570.00">
        <route edges="gneE0 gneE1"/>
    </vehicle>
    <vehicle id="286" depart="572.00">
        <route edges="gneE0 gneE2"/>
    </vehicle>
    <vehicle id="287" depart="574.00">
        <route edges="-gneE1 gneE2"/>
    </vehicle>
    <vehicle id="288" depart="576.00">
        <route edges="-gneE2 gneE1"/>
    </vehicle>
    <vehicle id="290" depart="580.00">
        <route edges="-gneE1 gneE2"/>
    </vehicle>
    <vehicle id="293" depart="586.00">
        <route edges="-gneE2 gneE1"/>
    </vehicle>
    <vehicle id="294" depart="588.00">
        <route edges="-gneE2 -gneE0"/>
    </vehicle>
    <vehicle id="296" depart="592.00">
        <route edges="-gneE1 gneE2"/>
    </vehicle>
    <vehicle id="299" depart="598.00">
        <route edges="-gneE1 gneE2"/>
    </vehicle>
    <vehicle id="300" depart="600.00">
        <route edges="-gneE1 gneE2"/>
    </vehicle>
    <vehicle id="302" depart="604.00">
        <route edges="gneE0 gneE1"/>
    </vehicle>
    <vehicle id="304" depart="608.00">
        <route edges="-gneE1 -gneE0"/>
    </vehicle>
    <vehicle id="306" depart="612.00">
        <route edges="-gneE2 gneE1"/>
    </vehicle>
    <vehicle id="307" depart="614.00">
        <route edges="-gneE2 gneE1"/>
    </vehicle>
    <vehicle id="310" depart="620.00">
        <route edges="-gneE1 -gneE0"/>
    </vehicle>
    <vehicle id="311" depart="622.00">
        <route edges="-gneE1 -gneE0"/>
    </vehicle>
    <vehicle id="313" depart="626.00">
        <route edges="-gneE1 -gneE0"/>
    </vehicle>
    <vehicle id="315" depart="630.00">
        <route edges="gneE0 gneE1"/>
    </vehicle>
    <vehicle id="316" depart="632.00">
        <route edges="-gneE1 -gneE0"/>
    </vehicle>
    <vehicle id="317" depart="634.00">
        <route edges="-gneE1 -gneE0"/>
    </vehicle>
    <vehicle id="318" depart="636.00">
        <route edges="-gneE1 -gneE0"/>
    </vehicle>
    <vehicle id="319" depart="638.00">
        <route edges="-gneE2 -gneE0"/>
    </vehicle>
    <vehicle id="320" depart="640.00">
        <route edges="gneE0 gneE1"/>
    </vehicle>
    <vehicle id="322" depart="644.00">
        <route edges="gneE0 gneE1"/>
    </vehicle>
    <vehicle id="323" depart="646.00">
        <route edges="gneE0 gneE1"/>
    </vehicle>
    <vehicle id="324" depart="648.00">
        <route edges="-gneE2 gneE1"/>
    </vehicle>
    <vehicle id="325" depart="650.00">
        <route edges="-gneE1 -gneE0"/>
    </vehicle>
    <vehicle id="326" depart="652.00">
        <route edges="gneE0 gneE1"/>
    </vehicle>
    <vehicle id="327" depart="654.00">
        <route edges="gneE0 gneE1"/>
    </vehicle>
    <vehicle id="329" depart="658.00">
        <route edges="-gneE1 -gneE0"/>
    </vehicle>
    <vehicle id="330" depart="660.00">
        <route edges="-gneE2 -gneE0"/>
    </vehicle>
    <vehicle id="332" depart="664.00">
        <route edges="gneE0 gneE1"/>
    </vehicle>
    <vehicle id="334" depart="668.00">
        <route edges="-gneE2 gneE1"/>
    </vehicle>
    <vehicle id="337" depart="674.00">
        <route edges="-gneE2 gneE1"/>
    </vehicle>
    <vehicle id="338" depart="676.00">
        <route edges="gneE0 gneE2"/>
    </vehicle>
    <vehicle id="339" depart="678.00">
        <route edges="-gneE1 -gneE0"/>
    </vehicle>
    <vehicle id="340" depart="680.00">
        <route edges="-gneE2 -gneE0"/>
    </vehicle>
    <vehicle id="341" depart="682.00">
        <route edges="-gneE1 -gneE0"/>
    </vehicle>
    <vehicle id="343" depart="686.00">
        <route edges="-gneE2 -gneE0"/>
    </vehicle>
    <vehicle id="344" depart="688.00">
        <route edges="-gneE1 gneE2"/>
    </vehicle>
    <vehicle id="345" depart="690.00">
        <route edges="gneE0 gneE1"/>
    </vehicle>
    <vehicle id="346" depart="692.00">
        <route edges="gneE0 gneE2"/>
    </vehicle>
    <vehicle id="347" depart="694.00">
        <route edges="gneE0 gneE1"/>
    </vehicle>
    <vehicle id="349" depart="698.00">
        <route edges="-gneE2 gneE1"/>
    </vehicle>
    <vehicle id="352" depart="704.00">
        <route edges="-gneE1 -gneE0"/>
    </vehicle>
    <vehicle id="353" depart="706.00">
        <route edges="gneE0 gneE1"/>
    </vehicle>
    <vehicle id="354" depart="708.00">
        <route edges="-gneE1 -gneE0"/>
    </vehicle>
    <vehicle id="355" depart="710.00">
        <route edges="gneE0 gneE2"/>
    </vehicle>
    <vehicle id="356" depart="712.00">
        <route edges="gneE0 gneE1"/>
    </vehicle>
    <vehicle id="357" depart="714.00">
        <route edges="-gneE2 -gneE0"/>
    </vehicle>
    <vehicle id="359" depart="718.00">
        <route edges="-gneE1 -gneE0"/>
    </vehicle>
    <vehicle id="360" depart="720.00">
        <route edges="-gneE1 gneE2"/>
    </vehicle>
    <vehicle id="361" depart="722.00">
        <route edges="gneE0 gneE1"/>
    </vehicle>
    <vehicle id="362" depart="724.00">
        <route edges="gneE0 gneE2"/>
    </vehicle>
    <vehicle id="364" depart="728.00">
        <route edges="-gneE1 gneE2"/>
    </vehicle>
    <vehicle id="365" depart="730.00">
        <route edges="-gneE2 gneE1"/>
    </vehicle>
    <vehicle id="367" depart="734.00">
        <route edges="-gneE2 gneE1"/>
    </vehicle>
    <vehicle id="368" depart="736.00">
        <route edges="-gneE2 -gneE0"/>
    </vehicle>
    <vehicle id="369" depart="738.00">
        <route edges="-gneE2 -gneE0"/>
    </vehicle>
    <vehicle id="370" depart="740.00">
        <route edges="gneE0 gneE2"/>
    </vehicle>
    <vehicle id="371" depart="742.00">
        <route edges="-gneE1 gneE2"/>
    </vehicle>
    <vehicle id="372" depart="744.00">
        <route edges="-gneE1 gneE2"/>
    </vehicle>
    <vehicle id="373" depart="746.00">
        <route edges="gneE0 gneE1"/>
    </vehicle>
    <vehicle id="374" depart="748.00">
        <route edges="-gneE2 -gneE0"/>
    </vehicle>
    <vehicle id="375" depart="750.00">
        <route edges="-gneE1 gneE2"/>
    </vehicle>
    <vehicle id="376" depart="752.00">
        <route edges="-gneE2 gneE1"/>
    </vehicle>
    <vehicle id="377" depart="754.00">
        <route edges="gneE0 gneE1"/>
    </vehicle>
    <vehicle id="378" depart="756.00">
        <route edges="-gneE2 gneE1"/>
    </vehicle>
    <vehicle id="380" depart="760.00">
        <route edges="gneE0 gneE1"/>
    </vehicle>
    <vehicle id="384" depart="768.00">
        <route edges="-gneE1 gneE2"/>
    </vehicle>
    <vehicle id="385" depart="770.00">
        <route edges="-gneE2 -gneE0"/>
    </vehicle>
    <vehicle id="387" depart="774.00">
        <route edges="-gneE2 -gneE0"/>
    </vehicle>
    <vehicle id="388" depart="776.00">
        <route edges="gneE0 gneE2"/>
    </vehicle>
    <vehicle id="389" depart="778.00">
        <route edges="-gneE2 -gneE0"/>
    </vehicle>
    <vehicle id="390" depart="780.00">
        <route edges="gneE0 gneE1"/>
    </vehicle>
    <vehicle id="391" depart="782.00">
        <route edges="gneE0 gneE1"/>
    </vehicle>
    <vehicle id="392" depart="784.00">
        <route edges="-gneE1 gneE2"/>
    </vehicle>
    <vehicle id="394" depart="788.00">
        <route edges="-gneE2 gneE1"/>
    </vehicle>
    <vehicle id="395" depart="790.00">
        <route edges="gneE0 gneE1"/>
    </vehicle>
    <vehicle id="396" depart="792.00">
        <route edges="gneE0 gneE2"/>
    </vehicle>
    <vehicle id="397" depart="794.00">
        <route edges="-gneE1 gneE2"/>
    </vehicle>
    <vehicle id="400" depart="800.00">
        <route edges="-gneE1 -gneE0"/>
    </vehicle>
    <vehicle id="402" depart="804.00">
        <route edges="-gneE2 -gneE0"/>
    </vehicle>
    <vehicle id="403" depart="806.00">
        <route edges="-gneE2 gneE1"/>
    </vehicle>
    <vehicle id="404" depart="808.00">
        <route edges="-gneE2 gneE1"/>
    </vehicle>
    <vehicle id="405" depart="810.00">
        <route edges="-gneE2 -gneE0"/>
    </vehicle>
    <vehicle id="406" depart="812.00">
        <route edges="-gneE1 gneE2"/>
    </vehicle>
    <vehicle id="407" depart="814.00">
        <route edges="-gneE2 -gneE0"/>
    </vehicle>
    <vehicle id="409" depart="818.00">
        <route edges="gneE0 gneE2"/>
    </vehicle>
    <vehicle id="410" depart="820.00">
        <route edges="gneE0 gneE1"/>
    </vehicle>
    <vehicle id="412" depart="824.00">
        <route edges="gneE0 gneE1"/>
    </vehicle>
    <vehicle id="415" depart="830.00">
        <route edges="gneE0 gneE1"/>
    </vehicle>
    <vehicle id="416" depart="832.00">
        <route edges="-gneE2 gneE1"/>
    </vehicle>
    <vehicle id="417" depart="834.00">
        <route edges="gneE0 gneE1"/>
    </vehicle>
    <vehicle id="418" depart="836.00">
        <route edges="-gneE2 -gneE0"/>
    </vehicle>
    <vehicle id="422" depart="844.00">
        <route edges="gneE0 gneE2"/>
    </vehicle>
    <vehicle id="423" depart="846.00">
        <route edges="-gneE2 -gneE0"/>
    </vehicle>
    <vehicle id="424" depart="848.00">
        <route edges="gneE0 gneE2"/>
    </vehicle>
    <vehicle id="427" depart="854.00">
        <route edges="gneE0 gneE2"/>
    </vehicle>
    <vehicle id="428" depart="856.00">
        <route edges="gneE0 gneE1"/>
    </vehicle>
    <vehicle id="430" depart="860.00">
        <route edges="gneE0 gneE1"/>
    </vehicle>
    <vehicle id="431" depart="862.00">
        <route edges="gneE0 gneE2"/>
    </vehicle>
    <vehicle id="432" depart="864.00">
        <route edges="-gneE1 gneE2"/>
    </vehicle>
    <vehicle id="436" depart="872.00">
        <route edges="-gneE1 -gneE0"/>
    </vehicle>
    <vehicle id="437" depart="874.00">
        <route edges="gneE0 gneE1"/>
    </vehicle>
    <vehicle id="438" depart="876.00">
        <route edges="-gneE1 gneE2"/>
    </vehicle>
    <vehicle id="440" depart="880.00">
        <route edges="-gneE1 -gneE0"/>
    </vehicle>
    <vehicle id="441" depart="882.00">
        <route edges="-gneE1 gneE2"/>
    </vehicle>
    <vehicle id="442" depart="884.00">
        <route edges="gneE0 gneE2"/>
    </vehicle>
    <vehicle id="444" depart="888.00">
        <route edges="-gneE2 gneE1"/>
    </vehicle>
    <vehicle id="445" depart="890.00">
        <route edges="-gneE2 gneE1"/>
    </vehicle>
    <vehicle id="446" depart="892.00">
        <route edges="-gneE1 gneE2"/>
    </vehicle>
    <vehicle id="448" depart="896.00">
        <route edges="-gneE2 -gneE0"/>
    </vehicle>
    <vehicle id="449" depart="898.00">
        <route edges="-gneE2 gneE1"/>
    </vehicle>
    <vehicle id="451" depart="902.00">
        <route edges="gneE0 gneE1"/>
    </vehicle>
    <vehicle id="453" depart="906.00">
        <route edges="gneE0 gneE2"/>
    </vehicle>
    <vehicle id="456" depart="912.00">
        <route edges="-gneE1 gneE2"/>
    </vehicle>
    <vehicle id="457" depart="914.00">
        <route edges="-gneE2 gneE1"/>
    </vehicle>
    <vehicle id="458" depart="916.00">
        <route edges="-gneE2 gneE1"/>
    </vehicle>
    <vehicle id="459" depart="918.00">
        <route edges="gneE0 gneE2"/>
    </vehicle>
    <vehicle id="462" depart="924.00">
        <route edges="-gneE2 -gneE0"/>
    </vehicle>
    <vehicle id="463" depart="926.00">
        <route edges="-gneE2 gneE1"/>
    </vehicle>
    <vehicle id="465" depart="930.00">
        <route edges="-gneE1 gneE2"/>
    </vehicle>
    <vehicle id="466" depart="932.00">