<routes>
  <vType id="type_0" length="5.0" width="2.0" accel="2.0" decel="4.5" minGap="2.5" maxSpeed="11.11" tau="2.0" emergencyDecel="4.5"/>
  <trip id="vehicle_0" depart="0" from="road_1_2_3" to="road_1_1_3" color="cyan" type="type_0" begin="0" end="0" period="5"/>
  <vType id="type_1" length="5.0" width="2.0" accel="2.0" decel="4.5" minGap="2.5" maxSpeed="11.11" tau="2.0" emergencyDecel="4.5"/>
  <trip id="vehicle_1" depart="2" from="road_1_2_3" to="road_1_1_3" color="cyan" type="type_1" begin="2" end="2" period="5"/>
  <vType id="type_2" length="5.0" width="2.0" accel="2.0" decel="4.5" minGap="2.5" maxSpeed="11.11" tau="2.0" emergencyDecel="4.5"/>
  <trip id="vehicle_2" depart="4" from="road_2_1_2" to="road_1_1_2" color="cyan" type="type_2" begin="4" end="4" period="5"/>
  <vType id="type_3" length="5.0" width="2.0" accel="2.0" decel="4.5" minGap="2.5" maxSpeed="11.11" tau="2.0" emergencyDecel="4.5"/>
  <trip id="vehicle_3" depart="5" from="road_2_1_2" to="road_1_1_2" color="cyan" type="type_3" begin="5" end="5" period="5"/>
  <vType id="type_4" length="5.0" width="2.0" accel="2.0" decel="4.5" minGap="2.5" maxSpeed="11.11" tau="2.0" emergencyDecel="4.5"/>
  <trip id="vehicle_4" depart="11" from="road_1_2_3" to="road_1_1_3" color="cyan" type="type_4" begin="11" end="11" period="5"/>
  <vType id="type_5" length="5.0" width="2.0" accel="2.0" decel="4.5" minGap="2.5" maxSpeed="11.11" tau="2.0" emergencyDecel="4.5"/>
  <trip id="vehicle_5" depart="18" from="road_1_2_3" to="road_1_1_3" color="cyan" type="type_5" begin="18" end="18" period="5"/>
  <vType id="type_6" length="5.0" width="2.0" accel="2.0" decel="4.5" minGap="2.5" maxSpeed="11.11" tau="2.0" emergencyDecel="4.5"/>
  <trip id="vehicle_6" depart="19" from="road_2_1_2" to="road_1_1_2" color="cyan" type="type_6" begin="19" end="19" period="5"/>
  <vType id="type_7" length="5.0" width="2.0" accel="2.0" decel="4.5" minGap="2.5" maxSpeed="11.11" tau="2.0" emergencyDecel="4.5"/>
  <trip id="vehicle_7" depart="28" from="road_0_1_0" to="road_1_1_0" color="cyan" type="type_7" begin="28" end="28" period="5"/>
  <vType id="type_8" length="5.0" width="2.0" accel="2.0" decel="4.5" minGap="2.5" maxSpeed="11.11" tau="2.0" emergencyDecel="4.5"/>
  <trip id="vehicle_8" depart="30" from="road_1_2_3" to="road_1_1_3" color="cyan" type="type_8" begin="30" end="30" period="5"/>
  <vType id="type_9" length="5.0" width="2.0" accel="2.0" decel="4.5" minGap="2.5" maxSpeed="11.11" tau="2.0" emergencyDecel="4.5"/>
  <trip id="vehicle_9" depart="30" from="road_1_2_3" to="road_1_1_0" color="cyan" type="type_9" begin="30" end="30" period="5"/>
  <vType id="type_10" length="5.0" width="2.0" accel="2.0" decel="4.5" minGap="2.5" maxSpeed="11.11" tau="2.0" emergencyDecel="4.5"/>
  <trip id="vehicle_10" depart="35" from="road_1_0_1" to="road_1_1_1" color="cyan" type="type_10" begin="35" end="35" period="5"/>
  <vType id="type_11" length="5.0" width="2.0" accel="2.0" decel="4.5" minGap="2.5" maxSpeed="11.11" tau="2.0" emergencyDecel="4.5"/>
  <trip id="vehicle_11" depart="47" from="road_1_2_3" to="road_1_1_3" color="cyan" type="type_11" begin="47" end="47" period="5"/>
  <vType id="type_12" length="5.0" width="2.0" accel="2.0" decel="4.5" minGap="2.5" maxSpeed="11.11" tau="2.0" emergencyDecel="4.5"/>
  <trip id="vehicle_12" depart="49" from="road_1_2_3" to="road_1_1_3" color="cyan" type="type_12" begin="49" end="49" period="5"/>
  <vType id="type_13" length="5.0" width="2.0" accel="2.0" decel="4.5" minGap="2.5" maxSpeed="11.11" tau="2.0" emergencyDecel="4.5"/>
  <trip id="vehicle_13" depart="58" from="road_0_1_0" to="road_1_1_0" color="cyan" type="type_13" begin="58" end="58" period="5"/>
  <vType id="type_14" length="5.0" width="2.0" accel="2.0" decel="4.5" minGap="2.5" maxSpeed="11.11" tau="2.0" emergencyDecel="4.5"/>
  <trip id="vehicle_14" depart="58" from="road_0_1_0" to="road_1_1_0" color="cyan" type="type_14" begin="58" end="58" period="5"/>
  <vType id="type_15" length="5.0" width="2.0" accel="2.0" decel="4.5" minGap="2.5" maxSpeed="11.11" tau="2.0" emergencyDecel="4.5"/>
  <trip id="vehicle_15" depart="59" from="road_0_1_0" to="road_1_1_0" color="cyan" type="type_15" begin="59" end="59" period="5"/>
  <vType id="type_16" length="5.0" width="2.0" accel="2.0" decel="4.5" minGap="2.5" maxSpeed="11.11" tau="2.0" emergencyDecel="4.5"/>
  <trip id="vehicle_16" depart="60" from="road_0_1_0" to="road_1_1_0" color="cyan" type="type_16" begin="60" end="60" period="5"/>
  <vType id="type_17" length="5.0" width="2.0" accel="2.0" decel="4.5" minGap="2.5" maxSpeed="11.11" tau="2.0" emergencyDecel="4.5"/>
  <trip id="vehicle_17" depart="66" from="road_1_2_3" to="road_1_1_3" color="cyan" type="type_17" begin="66" end="66" period="5"/>
  <vType id="type_18" length="5.0" width="2.0" accel="2.0" decel="4.5" minGap="2.5" maxSpeed="11.11" tau="2.0" emergencyDecel="4.5"/>
  <trip id="vehicle_18" depart="67" from="road_0_1_0" to="road_1_1_0" color="cyan" type="type_18" begin="67" end="67" period="5"/>
  <vType id="type_19" length="5.0" width="2.0" accel="2.0" decel="4.5" minGap="2.5" maxSpeed="11.11" tau="2.0" emergencyDecel="4.5"/>
  <trip id="vehicle_19" depart="67" from="road_0_1_0" to="road_1_1_1" color="cyan" type="type_19" begin="67" end="67" period="5"/>
  <vType id="type_20" length="5.0" width="2.0" accel="2.0" decel="4.5" minGap="2.5" maxSpeed="11.11" tau="2.0" emergencyDecel="4.5"/>
  <trip id="vehicle_20" depart="67" from="road_2_1_2" to="road_1_1_2" color="cyan" type="type_20" begin="67" end="67" period="5"/>
  <vType id="type_21" length="5.0" width="2.0" accel="2.0" decel="4.5" minGap="2.5" maxSpeed="11.11" tau="2.0" emergencyDecel="4.5"/>
  <trip id="vehicle_21" depart="67" from="road_2_1_2" to="road_1_1_3" color="cyan" type="type_21" begin="67" end="67" period="5"/>
  <vType id="type_22" length="5.0" width="2.0" accel="2.0" decel="4.5" minGap="2.5" maxSpeed="11.11" tau="2.0" emergencyDecel="4.5"/>
  <trip id="vehicle_22" depart="68" from="road_0_1_0" to="road_1_1_0" color="cyan" type="type_22" begin="68" end="68" period="5"/>
  <vType id="type_23" length="5.0" width="2.0" accel="2.0" decel="4.5" minGap="2.5" maxSpeed="11.11" tau="2.0" emergencyDecel="4.5"/>
  <trip id="vehicle_23" depart="70" from="road_2_1_2" to="road_1_1_2" color="cyan" type="type_23" begin="70" end="70" period="5"/>
  <vType id="type_24" length="5.0" width="2.0" accel="2.0" decel="4.5" minGap="2.5" maxSpeed="11.11" tau="2.0" emergencyDecel="4.5"/>
  <trip id="vehicle_24" depart="83" from="road_2_1_2" to="road_1_1_2" color="cyan" type="type_24" begin="83" end="83" period="5"/>
  <vType id="type_25" length="5.0" width="2.0" accel="2.0" decel="4.5" minGap="2.5" maxSpeed="11.11" tau="2.0" emergencyDecel="4.5"/>
  <trip id="vehicle_25" depart="90" from="road_2_1_2" to="road_1_1_2" color="cyan" type="type_25" begin="90" end="90" period="5"/>
  <vType id="type_26" length="5.0" width="2.0" accel="2.0" decel="4.5" minGap="2.5" maxSpeed="11.11" tau="2.0" emergencyDecel="4.5"/>
  <trip id="vehicle_26" depart="90" from="road_2_1_2" to="road_1_1_2" color="cyan" type="type_26" begin="90" end="90" period="5"/>
  <vType id="type_27" length="5.0" width="2.0" accel="2.0" decel="4.5" minGap="2.5" maxSpeed="11.11" tau="2.0" emergencyDecel="4.5"/>
  <trip id="vehicle_27" depart="91" from="road_2_1_2" to="road_1_1_2" color="cyan" type="type_27" begin="91" end="91" period="5"/>
  <vType id="type_28" length="5.0" width="2.0" accel="2.0" decel="4.5" minGap="2.5" maxSpeed="11.11" tau="2.0" emergencyDecel="4.5"/>
  <trip id="vehicle_28" depart="92" from="road_2_1_2" to="road_1_1_2" color="cyan" type="type_28" begin="92" end="92" period="5"/>
  <vType id="type_29" length="5.0" width="2.0" accel="2.0" decel="4.5" minGap="2.5" maxSpeed="11.11" tau="2.0" emergencyDecel="4.5"/>
  <trip id="vehicle_29" depart="95" from="road_2_1_2" to="road_1_1_2" color="cyan" type="type_29" begin="95" end="95" period="5"/>
  <vType id="type_30" length="5.0" width="2.0" accel="2.0" decel="4.5" minGap="2.5" maxSpeed="11.11" tau="2.0" emergencyDecel="4.5"/>
  <trip id="vehicle_30" depart="96" from="road_2_1_2" to="road_1_1_2" color="cyan" type="type_30" begin="96" end="96" period="5"/>
  <vType id="type_31" length="5.0" width="2.0" accel="2.0" decel="4.5" minGap="2.5" maxSpeed="11.11" tau="2.0" emergencyDecel="4.5"/>
  <trip id="vehicle_31" depart="96" from="road_2_1_2" to="road_1_1_3" color="cyan" type="type_31" begin="96" end="96" period="5"/>
  <vType id="type_32" length="5.0" width="2.0" accel="2.0" decel="4.5" minGap="2.5" maxSpeed="11.11" tau="2.0" emergencyDecel="4.5"/>
  <trip id="vehicle_32" depart="98" from="road_2_1_2" to="road_1_1_2" color="cyan" type="type_32" begin="98" end="98" period="5"/>
  <vType id="type_33" length="5.0" width="2.0" accel="2.0" decel="4.5" minGap="2.5" maxSpeed="11.11" tau="2.0" emergencyDecel="4.5"/>
  <trip id="vehicle_33" depart="100" from="road_1_0_1" to="road_1_1_1" color="cyan" type="type_33" begin="100" end="100" period="5"/>
  <vType id="type_34" length="5.0" width="2.0" accel="2.0" decel="4.5" minGap="2.5" maxSpeed="11.11" tau="2.0" emergencyDecel="4.5"/>
  <trip id="vehicle_34" depart="110" from="road_1_0_1" to="road_1_1_1" color="cyan" type="type_34" begin="110" end="110" period="5"/>
  <vType id="type_35" length="5.0" width="2.0" accel="2.0" decel="4.5" minGap="2.5" maxSpeed="11.11" tau="2.0" emergencyDecel="4.5"/>
  <trip id="vehicle_35" depart="110" from="road_1_2_3" to="road_1_1_3" color="cyan" type="type_35" begin="110" end="110" period="5"/>
  <vType id="type_36" length="5.0" width="2.0" accel="2.0" decel="4.5" minGap="2.5" maxSpeed="11.11" tau="2.0" emergencyDecel="4.5"/>
  <trip id="vehicle_36" depart="111" from="road_0_1_0" to="road_1_1_0" color="cyan" type="type_36" begin="111" end="111" period="5"/>
  <vType id="type_37" length="5.0" width="2.0" accel="2.0" decel="4.5" minGap="2.5" maxSpeed="11.11" tau="2.0" emergencyDecel="4.5"/>
  <trip id="vehicle_37" depart="112" from="road_1_0_1" to="road_1_1_1" color="cyan" type="type_37" begin="112" end="112" period="5"/>
  <vType id="type_38" length="5.0" width="2.0" accel="2.0" decel="4.5" minGap="2.5" maxSpeed="11.11" tau="2.0" emergencyDecel="4.5"/>
  <trip id="vehicle_38" depart="112" from="road_1_0_1" to="road_1_1_2" color="cyan" type="type_38" begin="112" end="112" period="5"/>
  <vType id="type_39" length="5.0" width="2.0" accel="2.0" decel="4.5" minGap="2.5" maxSpeed="11.11" tau="2.0" emergencyDecel="4.5"/>
  <trip id="vehicle_39" depart="120" from="road_2_1_2" to="road_1_1_2" color="cyan" type="type_39" begin="120" end="120" period="5"/>
  <vType id="type_40" length="5.0" width="2.0" accel="2.0" decel="4.5" minGap="2.5" maxSpeed="11.11" tau="2.0" emergencyDecel="4.5"/>
  <trip id="vehicle_40" depart="122" from="road_0_1_0" to="road_1_1_0" color="cyan" type="type_40" begin="122" end="122" period="5"/>
  <vType id="type_41" length="5.0" width="2.0" accel="2.0" decel="4.5" minGap="2.5" maxSpeed="11.11" tau="2.0" emergencyDecel="4.5"/>
  <trip id="vehicle_41" depart="127" from="road_0_1_0" to="road_1_1_0" color="cyan" type="type_41" begin="127" end="127" period="5"/>
  <vType id="type_42" length="5.0" width="2.0" accel="2.0" decel="4.5" minGap="2.5" maxSpeed="11.11" tau="2.0" emergencyDecel="4.5"/>
  <trip id="vehicle_42" depart="130" from="road_2_1_2" to="road_1_1_2" color="cyan" type="type_42" begin="130" end="130" period="5"/>
  <vType id="type_43" length="5.0" width="2.0" accel="2.0" decel="4.5" minGap="2.5" maxSpeed="11.11" tau="2.0" emergencyDecel="4.5"/>
  <trip id="vehicle_43" depart="130" from="road_2_1_2" to="road_1_1_3" color="cyan" type="type_43" begin="130" end="130" period="5"/>
  <vType id="type_44" length="5.0" width="2.0" accel="2.0" decel="4.5" minGap="2.5" maxSpeed="11.11" tau="2.0" emergencyDecel="4.5"/>
  <trip id="vehicle_44" depart="131" from="road_0_1_0" to="road_1_1_0" color="cyan" type="type_44" begin="131" end="131" period="5"/>
  <vType id="type_45" length="5.0" width="2.0" accel="2.0" decel="4.5" minGap="2.5" maxSpeed="11.11" tau="2.0" emergencyDecel="4.5"/>
  <trip id="vehicle_45" depart="132" from="road_2_1_2" to="road_1_1_2" color="cyan" type="type_45" begin="132" end="132" period="5"/>
  <vType id="type_46" length="5.0" width="2.0" accel="2.0" decel="4.5" minGap="2.5" maxSpeed="11.11" tau="2.0" emergencyDecel="4.5"/>
  <trip id="vehicle_46" depart="132" from="road_2_1_2" to="road_1_1_3" color="cyan" type="type_46" begin="132" end="132" period="5"/>
  <vType id="type_47" length="5.0" width="2.0" accel="2.0" decel="4.5" minGap="2.5" maxSpeed="11.11" tau="2.0" emergencyDecel="4.5"/>
  <trip id="vehicle_47" depart="146" from="road_1_2_3" to="road_1_1_3" color="cyan" type="type_47" begin="146" end="146" period="5"/>
  <vType id="type_48" length="5.0" width="2.0" accel="2.0" decel="4.5" minGap="2.5" maxSpeed="11.11" tau="2.0" emergencyDecel="4.5"/>
  <trip id="vehicle_48" depart="147" from="road_1_0_1" to="road_1_1_1" color="cyan" type="type_48" begin="147" end="147" period="5"/>
  <vType id="type_49" length="5.0" width="2.0" accel="2.0" decel="4.5" minGap="2.5" maxSpeed="11.11" tau="2.0" emergencyDecel="4.5"/>
  <trip id="vehicle_49" depart="147" from="road_1_0_1" to="road_1_1_2" color="cyan" type="type_49" begin="147" end="147" period="5"/>
  <vType id="type_50" length="5.0" width="2.0" accel="2.0" decel="4.5" minGap="2.5" maxSpeed="11.11" tau="2.0" emergencyDecel="4.5"/>
  <trip id="vehicle_50" depart="149" from="road_1_2_3" to="road_1_1_3" color="cyan" type="type_50" begin="149" end="149" period="5"/>
  <vType id="type_51" length="5.0" width="2.0" accel="2.0" decel="4.5" minGap="2.5" maxSpeed="11.11" tau="2.0" emergencyDecel="4.5"/>
  <trip id="vehicle_51" depart="151" from="road_1_2_3" to="road_1_1_3" color="cyan" type="type_51" begin="151" end="151" period="5"/>
  <vType id="type_52" length="5.0" width="2.0" accel="2.0" decel="4.5" minGap="2.5" maxSpeed="11.11" tau="2.0" emergencyDecel="4.5"/>
  <trip id="vehicle_52" depart="152" from="road_1_0_1" to="road_1_1_1" color="cyan" type="type_52" begin="152" end="152" period="5"/>
  <vType id="type_53" length="5.0" width="2.0" accel="2.0" decel="4.5" minGap="2.5" maxSpeed="11.11" tau="2.0" emergencyDecel="4.5"/>
  <trip id="vehicle_53" depart="153" from="road_2_1_2" to="road_1_1_2" color="cyan" type="type_53" begin="153" end="153" period="5"/>
  <vType id="type_54" length="5.0" width="2.0" accel="2.0" decel="4.5" minGap="2.5" maxSpeed="11.11" tau="2.0" emergencyDecel="4.5"/>
  <trip id="vehicle_54" depart="154" from="road_1_2_3" to="road_1_1_3" color="cyan" type="type_54" begin="154" end="154" period="5"/>
  <vType id="type_55" length="5.0" width="2.0" accel="2.0" decel="4.5" minGap="2.5" maxSpeed="11.11" tau="2.0" emergencyDecel="4.5"/>
  <trip id="vehicle_55" depart="155" from="road_1_2_3" to="road_1_1_3" color="cyan" type="type_55" begin="155" end="155" period="5"/>
  <vType id="type_56" length="5.0" width="2.0" accel="2.0" decel="4.5" minGap="2.5" maxSpeed="11.11" tau="2.0" emergencyDecel="4.5"/>
  <trip id="vehicle_56" depart="155" from="road_1_2_3" to="road_1_1_0" color="cyan" type="type_56" begin="155" end="155" period="5"/>
  <vType id="type_57" length="5.0" width="2.0" accel="2.0" decel="4.5" minGap="2.5" maxSpeed="11.11" tau="2.0" emergencyDecel="4.5"/>
  <trip id="vehicle_57" depart="159" from="road_1_0_1" to="road_1_1_1" color="cyan" type="type_57" begin="159" end="159" period="5"/>
  <vType id="type_58" length="5.0" width="2.0" accel="2.0" decel="4.5" minGap="2.5" maxSpeed="11.11" tau="2.0" emergencyDecel="4.5"/>
  <trip id="vehicle_58" depart="159" from="road_1_0_1" to="road_1_1_2" color="cyan" type="type_58" begin="159" end="159" period="5"/>
  <vType id="type_59" length="5.0" width="2.0" accel="2.0" decel="4.5" minGap="2.5" maxSpeed="11.11" tau="2.0" emergencyDecel="4.5"/>
  <trip id="vehicle_59" depart="161" from="road_1_0_1" to="road_1_1_1" color="cyan" type="type_59" begin="161" end="161" period="5"/>
  <vType id="type_60" length="5.0" width="2.0" accel="2.0" decel="4.5" minGap="2.5" maxSpeed="11.11" tau="2.0" emergencyDecel="4.5"/>
  <trip id="vehicle_60" depart="171" from="road_1_0_1" to="road_1_1_1" color="cyan" type="type_60" begin="171" end="171" period="5"/>
  <vType id="type_61" length="5.0" width="2.0" accel="2.0" decel="4.5" minGap="2.5" maxSpeed="11.11" tau="2.0" emergencyDecel="4.5"/>
  <trip id="vehicle_61" depart="171" from="road_1_0_1" to="road_1_1_2" color="cyan" type="type_61" begin="171" end="171" period="5"/>
  <vType id="type_62" length="5.0" width="2.0" accel="2.0" decel="4.5" minGap="2.5" maxSpeed="11.11" tau="2.0" emergencyDecel="4.5"/>
  <trip id="vehicle_62" depart="172" from="road_1_2_3" to="road_1_1_3" color="cyan" type="type_62" begin="172" end="172" period="5"/>
  <vType id="type_63" length="5.0" width="2.0" accel="2.0" decel="4.5" minGap="2.5" maxSpeed="11.11" tau="2.0" emergencyDecel="4.5"/>
  <trip id="vehicle_63" depart="173" from="road_1_0_1" to="road_1_1_1" color="cyan" type="type_63" begin="173" end="173" period="5"/>
  <vType id="type_64" length="5.0" width="2.0" accel="2.0" decel="4.5" minGap="2.5" maxSpeed="11.11" tau="2.0" emergencyDecel="4.5"/>
  <trip id="vehicle_64" depart="178" from="road_1_2_3" to="road_1_1_3" color="cyan" type="type_64" begin="178" end="178" period="5"/>
  <vType id="type_65" length="5.0" width="2.0" accel="2.0" decel="4.5" minGap="2.5" maxSpeed="11.11" tau="2.0" emergencyDecel="4.5"/>
  <trip id="vehicle_65" depart="188" from="road_0_1_0" to="road_1_1_0" color="cyan" type="type_65" begin="188" end="188" period="5"/>
  <vType id="type_66" length="5.0" width="2.0" accel="2.0" decel="4.5" minGap="2.5" maxSpeed="11.11" tau="2.0" emergencyDecel="4.5"/>
  <trip id="vehicle_66" depart="192" from="road_1_2_3" to="road_1_1_3" color="cyan" type="type_66" begin="192" end="192" period="5"/>
  <vType id="type_67" length="5.0" width="2.0" accel="2.0" decel="4.5" minGap="2.5" maxSpeed="11.11" tau="2.0" emergencyDecel="4.5"/>
  <trip id="vehicle_67" depart="197" from="road_1_0_1" to="road_1_1_1" color="cyan" type="type_67" begin="197" end="197" period="5"/>
  <vType id="type_68" length="5.0" width="2.0" accel="2.0" decel="4.5" minGap="2.5" maxSpeed="11.11" tau="2.0" emergencyDecel="4.5"/>
  <trip id="vehicle_68" depart="198" from="road_2_1_2" to="road_1_1_2" color="cyan" type="type_68" begin="198" end="198" period="5"/>
  <vType id="type_69" length="5.0" width="2.0" accel="2.0" decel="4.5" minGap="2.5" maxSpeed="11.11" tau="2.0" emergencyDecel="4.5"/>
  <trip id="vehicle_69" depart="201" from="road_2_1_2" to="road_1_1_2" color="cyan" type="type_69" begin="201" end="201" period="5"/>
  <vType id="type_70" length="5.0" width="2.0" accel="2.0" decel="4.5" minGap="2.5" maxSpeed="11.11" tau="2.0" emergencyDecel="4.5"/>
  <trip id="vehicle_70" depart="206" from="road_2_1_2" to="road_1_1_2" color="cyan" type="type_70" begin="206" end="206" period="5"/>
  <vType id="type_71" length="5.0" width="2.0" accel="2.0" decel="4.5" minGap="2.5" maxSpeed="11.11" tau="2.0" emergencyDecel="4.5"/>
  <trip id="vehicle_71" depart="207" from="road_2_1_2" to="road_1_1_2" color="cyan" type="type_71" begin="207" end="207" period="5"/>
  <vType id="type_72" length="5.0" width="2.0" accel="2.0" decel="4.5" minGap="2.5" maxSpeed="11.11" tau="2.0" emergencyDecel="4.5"/>
  <trip id="vehicle_72" depart="208" from="road_0_1_0" to="road_1_1_0" color="cyan" type="type_72" begin="208" end="208" period="5"/>
  <vType id="type_73" length="5.0" width="2.0" accel="2.0" decel="4.5" minGap="2.5" maxSpeed="11.11" tau="2.0" emergencyDecel="4.5"/>
  <trip id="vehicle_73" depart="210" from="road_0_1_0" to="road_1_1_0" color="cyan" type="type_73" begin="210" end="210" period="5"/>
  <vType id="type_74" length="5.0" width="2.0" accel="2.0" decel="4.5" minGap="2.5" maxSpeed="11.11" tau="2.0" emergencyDecel="4.5"/>
  <trip id="vehicle_74" depart="210" from="road_1_0_1" to="road_1_1_1" color="cyan" type="type_74" begin="210" end="210" period="5"/>
  <vType id="type_75" length="5.0" width="2.0" accel="2.0" decel="4.5" minGap="2.5" maxSpeed="11.11" tau="2.0" emergencyDecel="4.5"/>
  <trip id="vehicle_75" depart="214" from="road_2_1_2" to="road_1_1_2" color="cyan" type="type_75" begin="214" end="214" period="5"/>
  <vType id="type_76" length="5.0" width="2.0" accel="2.0" decel="4.5" minGap="2.5" maxSpeed="11.11" tau="2.0" emergencyDecel="4.5"/>
  <trip id="vehicle_76" depart="215" from="road_1_0_1" to="road_1_1_1" color="cyan" type="type_76" begin="215" end="215" period="5"/>
  <vType id="type_77" length="5.0" width="2.0" accel="2.0" decel="4.5" minGap="2.5" maxSpeed="11.11" tau="2.0" emergencyDecel="4.5"/>
  <trip id="vehicle_77" depart="216" from="road_0_1_0" to="road_1_1_0" color="cyan" type="type_77" begin="216" end="216" period="5"/>
  <vType id="type_78" length="5.0" width="2.0" accel="2.0" decel="4.5" minGap="2.5" maxSpeed="11.11" tau="2.0" emergencyDecel="4.5"/>
  <trip id="vehicle_78" depart="217" from="road_1_2_3" to="road_1_1_3" color="cyan" type="type_78" begin="217" end="217" period="5"/>
  <vType id="type_79" length="5.0" width="2.0" accel="2.0" decel="4.5" minGap="2.5" maxSpeed="11.11" tau="2.0" emergencyDecel="4.5"/>
  <trip id="vehicle_79" depart="220" from="road_2_1_2" to="road_1_1_2" color="cyan" type="type_79" begin="220" end="220" period="5"/>
  <vType id="type_80" length="5.0" width="2.0" accel="2.0" decel="4.5" minGap="2.5" maxSpeed="11.11" tau="2.0" emergencyDecel="4.5"/>
  <trip id="vehicle_80" depart="227" from="road_0_1_0" to="road_1_1_0" color="cyan" type="type_80" begin="227" end="227" period="5"/>
  <vType id="type_81" length="5.0" width="2.0" accel="2.0" decel="4.5" minGap="2.5" maxSpeed="11.11" tau="2.0" emergencyDecel="4.5"/>
  <trip id="vehicle_81" depart="229" from="road_2_1_2" to="road_1_1_2" color="cyan" type="type_81" begin="229" end="229" period="5"/>
  <vType id="type_82" length="5.0" width="2.0" accel="2.0" decel="4.5" minGap="2.5" maxSpeed="11.11" tau="2.0" emergencyDecel="4.5"/>
  <trip id="vehicle_82" depart="238" from="road_0_1_0" to="road_1_1_0" color="cyan" type="type_82" begin="238" end="238" period="5"/>
  <vType id="type_83" length="5.0" width="2.0" accel="2.0" decel="4.5" minGap="2.5" maxSpeed="11.11" tau="2.0" emergencyDecel="4.5"/>
  <trip id="vehicle_83" depart="238" from="road_0_1_0" to="road_1_1_1" color="cyan" type="type_83" begin="238" end="238" period="5"/>
  <vType id="type_84" length="5.0" width="2.0" accel="2.0" decel="4.5" minGap="2.5" maxSpeed="11.11" tau="2.0" emergencyDecel="4.5"/>
  <trip id="vehicle_84" depart="238" from="road_2_1_2" to="road_1_1_2" color="cyan" type="type_84" begin="238" end="238" period="5"/>
  <vType id="type_85" length="5.0" width="2.0" accel="2.0" decel="4.5" minGap="2.5" maxSpeed="11.11" tau="2.0" emergencyDecel="4.5"/>
  <trip id="vehicle_85" depart="243" from="road_0_1_0" to="road_1_1_0" color="cyan" type="type_85" begin="243" end="243" period="5"/>
  <vType id="type_86" length="5.0" width="2.0" accel="2.0" decel="4.5" minGap="2.5" maxSpeed="11.11" tau="2.0" emergencyDecel="4.5"/>
  <trip id="vehicle_86" depart="245" from="road_0_1_0" to="road_1_1_0" color="cyan" type="type_86" begin="245" end="245" period="5"/>
  <vType id="type_87" length="5.0" width="2.0" accel="2.0" decel="4.5" minGap="2.5" maxSpeed="11.11" tau="2.0" emergencyDecel="4.5"/>
  <trip id="vehicle_87" depart="247" from="road_2_1_2" to="road_1_1_2" color="cyan" type="type_87" begin="247" end="247" period="5"/>
  <vType id="type_88" length="5.0" width="2.0" accel="2.0" decel="4.5" minGap="2.5" maxSpeed="11.11" tau="2.0" emergencyDecel="4.5"/>
  <trip id="vehicle_88" depart="248" from="road_0_1_0" to="road_1_1_0" color="cyan" type="type_88" begin="248" end="248" period="5"/>
  <vType id="type_89" length="5.0" width="2.0" accel="2.0" decel="4.5" minGap="2.5" maxSpeed="11.11" tau="2.0" emergencyDecel="4.5"/>
  <trip id="vehicle_89" depart="248" from="road_0_1_0" to="road_1_1_0" color="cyan" type="type_89" begin="248" end="248" period="5"/>
  <vType id="type_90" length="5.0" width="2.0" accel="2.0" decel="4.5" minGap="2.5" maxSpeed="11.11" tau="2.0" emergencyDecel="4.5"/>
  <trip id="vehicle_90" depart="250" from="road_1_0_1" to="road_1_1_1" color="cyan" type="type_90" begin="250" end="250" period="5"/>
  <vType id="type_91" length="5.0" width="2.0" accel="2.0" decel="4.5" minGap="2.5" maxSpeed="11.11" tau="2.0" emergencyDecel="4.5"/>
  <trip id="vehicle_91" depart="250" from="road_1_0_1" to="road_1_1_2" color="cyan" type="type_91" begin="250" end="250" period="5"/>
  <vType id="type_92" length="5.0" width="2.0" accel="2.0" decel="4.5" minGap="2.5" maxSpeed="11.11" tau="2.0" emergencyDecel="4.5"/>
  <trip id="vehicle_92" depart="251" from="road_2_1_2" to="road_1_1_2" color="cyan" type="type_92" begin="251" end="251" period="5"/>
  <vType id="type_93" length="5.0" width="2.0" accel="2.0" decel="4.5" minGap="2.5" maxSpeed="11.11" tau="2.0" emergencyDecel="4.5"/>
  <trip id="vehicle_93" depart="251" from="road_0_1_0" to="road_1_1_0" color="cyan" type="type_93" begin="251" end="251" period="5"/>
  <vType id="type_94" length="5.0" width="2.0" accel="2.0" decel="4.5" minGap="2.5" maxSpeed="11.11" tau="2.0" emergencyDecel="4.5"/>
  <trip id="vehicle_94" depart="251" from="road_0_1_0" to="road_1_1_1" color="cyan" type="type_94" begin="251" end="251" period="5"/>
  <vType id="type_95" length="5.0" width="2.0" accel="2.0" decel="4.5" minGap="2.5" maxSpeed="11.11" tau="2.0" emergencyDecel="4.5"/>
  <trip id="vehicle_95" depart="253" from="road_1_2_3" to="road_1_1_3" color="cyan" type="type_95" begin="253" end="253" period="5"/>
  <vType id="type_96" length="5.0" width="2.0" accel="2.0" decel="4.5" minGap="2.5" maxSpeed="11.11" tau="2.0" emergencyDecel="4.5"/>
  <trip id="vehicle_96" depart="253" from="road_1_2_3" to="road_1_1_0" color="cyan" type="type_96" begin="253" end="253" period="5"/>
  <vType id="type_97" length="5.0" width="2.0" accel="2.0" decel="4.5" minGap="2.5" maxSpeed="11.11" tau="2.0" emergencyDecel="4.5"/>
  <trip id="vehicle_97" depart="254" from="road_2_1_2" to="road_1_1_2" color="cyan" type="type_97" begin="254" end="254" period="5"/>
  <vType id="type_98" length="5.0" width="2.0" accel="2.0" decel="4.5" minGap="2.5" maxSpeed="11.11" tau="2.0" emergencyDecel="4.5"/>
  <trip id="vehicle_98" depart="258" from="road_0_1_0" to="road_1_1_0" color="cyan" type="type_98" begin="258" end="258" period="5"/>
  <vType id="type_99" length="5.0" width="2.0" accel="2.0" decel="4.5" minGap="2.5" maxSpeed="11.11" tau="2.0" emergencyDecel="4.5"/>
  <trip id="vehicle_99" depart="258" from="road_0_1_0" to="road_1_1_1" color="cyan" type="type_99" begin="258" end="258" period="5"/>
  <vType id="type_100" length="5.0" width="2.0" accel="2.0" decel="4.5" minGap="2.5" maxSpeed="11.11" tau="2.0" emergencyDecel="4.5"/>
  <trip id="vehicle_100" depart="261" from="road_1_2_3" to="road_1_1_3" color="cyan" type="type_100" begin="261" end="261" period="5"/>
  <vType id="type_101" length="5.0" width="2.0" accel="2.0" decel="4.5" minGap="2.5" maxSpeed="11.11" tau="2.0" emergencyDecel="4.5"/>
  <trip id="vehicle_101" depart="262" from="road_2_1_2" to="road_1_1_2" color="cyan" type="type_101" begin="262" end="262" period="5"/>
  <vType id="type_102" length="5.0" width="2.0" accel="2.0" decel="4.5" minGap="2.5" maxSpeed="11.11" tau="2.0" emergencyDecel="4.5"/>
  <trip id="vehicle_102" depart="264" from="road_2_1_2" to="road_1_1_2" color="cyan" type="type_102" begin="264" end="264" period="5"/>
  <vType id="type_103" length="5.0" width="2.0" accel="2.0" decel="4.5" minGap="2.5" maxSpeed="11.11" tau="2.0" emergencyDecel="4.5"/>
  <trip id="vehicle_103" depart="264" from="road_2_1_2" to="road_1_1_2" color="cyan" type="type_103" begin="264" end="264" period="5"/>
  <vType id="type_104" length="5.0" width="2.0" accel="2.0" decel="4.5" minGap="2.5" maxSpeed="11.11" tau="2.0" emergencyDecel="4.5"/>
  <trip id="vehicle_104" depart="265" from="road_1_2_3" to="road_1_1_3" color="cyan" type="type_104" begin="265" end="265" period="5"/>
  <vType id="type_105" length="5.0" width="2.0" accel="2.0" decel="4.5" minGap="2.5" maxSpeed="11.11" tau="2.0" emergencyDecel="4.5"/>
  <trip id="vehicle_105" depart="266" from="road_2_1_2" to="road_1_1_2" color="cyan" type="type_105" begin="266" end="266" period="5"/>
  <vType id="type_106" length="5.0" width="2.0" accel="2.0" decel="4.5" minGap="2.5" maxSpeed="11.11" tau="2.0" emergencyDecel="4.5"/>
  <trip id="vehicle_106" depart="270" from="road_1_2_3" to="road_1_1_3" color="cyan" type="type_106" begin="270" end="270" period="5"/>
  <vType id="type_107" length="5.0" width="2.0" accel="2.0" decel="4.5" minGap="2.5" maxSpeed="11.11" tau="2.0" emergencyDecel="4.5"/>
  <trip id="vehicle_107" depart="274" from="road_1_2_3" to="road_1_1_3" color="cyan" type="type_107" begin="274" end="274" period="5"/>
  <vType id="type_108" length="5.0" width="2.0" accel="2.0" decel="4.5" minGap="2.5" maxSpeed="11.11" tau="2.0" emergencyDecel="4.5"/>
  <trip id="vehicle_108" depart="278" from="road_1_2_3" to="road_1_1_3" color="cyan" type="type_108" begin="278" end="278" period="5"/>
  <vType id="type_109" length="5.0" width="2.0" accel="2.0" decel="4.5" minGap="2.5" maxSpeed="11.11" tau="2.0" emergencyDecel="4.5"/>
  <trip id="vehicle_109" depart="278" from="road_0_1_0" to="road_1_1_0" color="cyan" type="type_109" begin="278" end="278" period="5"/>
  <vType id="type_110" length="5.0" width="2.0" accel="2.0" decel="4.5" minGap="2.5" maxSpeed="11.11" tau="2.0" emergencyDecel="4.5"/>
  <trip id="vehicle_110" depart="281" from="road_1_0_1" to="road_1_1_1" color="cyan" type="type_110" begin="281" end="281" period="5"/>
  <vType id="type_111" length="5.0" width="2.0" accel="2.0" decel="4.5" minGap="2.5" maxSpeed="11.11" tau="2.0" emergencyDecel="4.5"/>
  <trip id="vehicle_111" depart="281" from="road_1_0_1" to="road_1_1_2" color="cyan" type="type_111" begin="281" end="281" period="5"/>