<configuration>
  <input>
    <net-file value="roadnet_p4b_lt.net.xml"/>
    <route-files value="flow.rou.xml"/>
  </input>
  <time>
    <begin value="0"/>
  </time>
</configuration>
