<?xml version="1.0" encoding="UTF-8"?>

<!-- generated on 2021-10-24 11:27:45 by Eclipse SUMO netedit Version 1.10.0
<configuration xmlns:xsi="http://www.w3.org/2001/XMLSchema-instance" xsi:noNamespaceSchemaLocation="http://sumo.dlr.de/xsd/netconvertConfiguration.xsd">

    <input>
        <sumo-net-file value="C:\Users\bai\Desktop\demo_T\demo_T.net.xml"/>
    </input>

    <output>
        <output-file value="C:\Users\bai\Desktop\demo_T\demo_T.net.xml"/>
    </output>

    <processing>
        <geometry.min-radius.fix.railways value="false"/>
        <geometry.max-grade.fix value="false"/>
        <offset.disable-normalization value="true"/>
        <lefthand value="false"/>
    </processing>

    <junctions>
        <no-turnarounds value="true"/>
        <junctions.corner-detail value="5"/>
        <junctions.limit-turn-speed value="5.5"/>
        <rectangular-lane-cut value="false"/>
    </junctions>

    <pedestrian>
        <walkingareas value="false"/>
    </pedestrian>

    <report>
        <aggregate-warnings value="5"/>
    </report>

</configuration>
-->

<net version="1.9" junctionCornerDetail="5" limitTurnSpeed="5.50" xmlns:xsi="http://www.w3.org/2001/XMLSchema-instance" xsi:noNamespaceSchemaLocation="http://sumo.dlr.de/xsd/net_file.xsd">

    <location netOffset="0.00,0.00" convBoundary="0.00,0.00,600.00,300.00" origBoundary="-10000000000.00,-10000000000.00,10000000000.00,10000000000.00" projParameter="!"/>

    <edge id=":gneJ1_0" function="internal">
        <lane id=":gneJ1_0_0" index="0" speed="13.89" length="20.80" shape="310.40,304.80 289.60,304.80"/>
    </edge>
    <edge id=":gneJ1_1" function="internal">
        <lane id=":gneJ1_1_0" index="0" speed="9.26" length="19.35" shape="310.40,301.60 305.15,300.85 301.40,298.60 299.15,294.85 298.40,289.60"/>
    </edge>
    <edge id=":gneJ1_2" function="internal">
        <lane id=":gneJ1_2_0" index="0" speed="6.51" length="9.03" shape="304.80,289.60 305.15,292.05 306.20,293.80 307.95,294.85 310.40,295.20"/>
    </edge>
    <edge id=":gneJ1_3" function="internal">
        <lane id=":gneJ1_3_0" index="0" speed="9.26" length="19.35" shape="301.60,289.60 300.85,294.85 298.60,298.60 294.85,300.85 289.60,301.60"/>
    </edge>
    <edge id=":gneJ1_4" function="internal">
        <lane id=":gneJ1_4_0" index="0" speed="6.51" length="9.03" shape="289.60,295.20 292.05,294.85 293.80,293.80 294.85,292.05 295.20,289.60"/>
    </edge>
    <edge id=":gneJ1_5" function="internal">
        <lane id=":gneJ1_5_0" index="0" speed="13.89" length="20.80" shape="289.60,298.40 310.40,298.40"/>
    </edge>

    <edge id="-gneE0" from="gneJ1" to="gneJ0" priority="-1">
        <lane id="-gneE0_0" index="0" speed="13.89" length="289.60" shape="289.60,304.80 0.00,304.80"/>
        <lane id="-gneE0_1" index="1" speed="13.89" length="289.60" shape="289.60,301.60 0.00,301.60"/>
    </edge>
    <edge id="-gneE1" from="gneJ2" to="gneJ1" priority="-1">
        <lane id="-gneE1_0" index="0" speed="13.89" length="289.60" shape="600.00,304.80 310.40,304.80"/>
        <lane id="-gneE1_1" index="1" speed="13.89" length="289.60" shape="600.00,301.60 310.40,301.60"/>
    </edge>
    <edge id="-gneE2" from="gneJ3" to="gneJ1" priority="-1">
        <lane id="-gneE2_0" index="0" speed="13.89" length="289.60" shape="304.80,0.00 304.80,289.60"/>
        <lane id="-gneE2_1" index="1" speed="13.89" length="289.60" shape="301.60,0.00 301.60,289.60"/>
    </edge>
    <edge id="gneE0" from="gneJ0" to="gneJ1" priority="-1">
        <lane id="gneE0_0" index="0" speed="13.89" length="289.60" shape="0.00,295.20 289.60,295.20"/>
        <lane id="gneE0_1" index="1" speed="13.89" length="289.60" shape="0.00,298.40 289.60,298.40"/>
    </edge>
    <edge id="gneE1" from="gneJ1" to="gneJ2" priority="-1">
        <lane id="gneE1_0" index="0" speed="13.89" length="289.60" shape="310.40,295.20 600.00,295.20"/>
        <lane id="gneE1_1" index="1" speed="13.89" length="289.60" shape="310.40,298.40 600.00,298.40"/>
    </edge>
    <edge id="gneE2" from="gneJ1" to="gneJ3" priority="-1">
        <lane id="gneE2_0" index="0" speed="13.89" length="289.60" shape="295.20,289.60 295.20,0.00"/>
        <lane id="gneE2_1" index="1" speed="13.89" length="289.60" shape="298.40,289.60 298.40,0.00"/>
    </edge>

    <tlLogic id="gneJ1" type="static" programID="0" offset="0">
        <phase duration="10" state="GrGrGG"/>
        <phase duration="10" state="rrGGGr"/>
        <phase duration="10" state="rGGrGr"/>
    </tlLogic>

    <junction id="gneJ0" type="dead_end" x="0.00" y="300.00" incLanes="-gneE0_0 -gneE0_1" intLanes="" shape="0.00,300.00 0.00,306.40 0.00,300.00"/>
    <junction id="gneJ1" type="traffic_light" x="300.00" y="300.00" incLanes="-gneE1_0 -gneE1_1 -gneE2_0 -gneE2_1 gneE0_0 gneE0_1" intLanes=":gneJ1_0_0 :gneJ1_1_0 :gneJ1_2_0 :gneJ1_3_0 :gneJ1_4_0 :gneJ1_5_0" shape="310.40,306.40 310.40,293.60 308.18,293.16 307.40,292.60 306.84,291.82 306.51,290.82 306.40,289.60 293.60,289.60 293.16,291.82 292.60,292.60 291.82,293.16 290.82,293.49 289.60,293.60 289.60,306.40">
        <request index="0" response="000000" foes="000000" cont="0"/>
        <request index="1" response="100000" foes="101000" cont="0"/>
        <request index="2" response="000000" foes="000000" cont="0"/>
        <request index="3" response="100010" foes="100010" cont="0"/>
        <request index="4" response="000000" foes="000000" cont="0"/>
        <request index="5" response="000000" foes="001010" cont="0"/>
    </junction>
    <junction id="gneJ2" type="dead_end" x="600.00" y="300.00" incLanes="gneE1_0 gneE1_1" intLanes="" shape="600.00,300.00 600.00,293.60 600.00,300.00"/>
    <junction id="gneJ3" type="dead_end" x="300.00" y="0.00" incLanes="gneE2_0 gneE2_1" intLanes="" shape="300.00,0.00 293.60,0.00 300.00,0.00"/>

    <connection from="-gneE1" to="-gneE0" fromLane="0" toLane="0" via=":gneJ1_0_0" tl="gneJ1" linkIndex="0" dir="s" state="O"/>
    <connection from="-gneE1" to="gneE2" fromLane="1" toLane="1" via=":gneJ1_1_0" tl="gneJ1" linkIndex="1" dir="l" state="o"/>
    <connection from="-gneE2" to="gneE1" fromLane="0" toLane="0" via=":gneJ1_2_0" tl="gneJ1" linkIndex="2" dir="r" state="O"/>
    <connection from="-gneE2" to="-gneE0" fromLane="1" toLane="1" via=":gneJ1_3_0" tl="gneJ1" linkIndex="3" dir="l" state="o"/>
    <connection from="gneE0" to="gneE2" fromLane="0" toLane="0" via=":gneJ1_4_0" tl="gneJ1" linkIndex="4" dir="r" state="O"/>
    <connection from="gneE0" to="gneE1" fromLane="1" toLane="1" via=":gneJ1_5_0" tl="gneJ1" linkIndex="5" dir="s" state="O"/>

    <connection from=":gneJ1_0" to="-gneE0" fromLane="0" toLane="0" dir="s" state="M"/>
    <connection from=":gneJ1_1" to="gneE2" fromLane="0" toLane="1" dir="l" state="M"/>
    <connection from=":gneJ1_2" to="gneE1" fromLane="0" toLane="0" dir="r" state="M"/>
    <connection from=":gneJ1_3" to="-gneE0" fromLane="0" toLane="1" dir="l" state="M"/>
    <connection from=":gneJ1_4" to="gneE2" fromLane="0" toLane="0" dir="r" state="M"/>
    <connection from=":gneJ1_5" to="gneE1" fromLane="0" toLane="1" dir="s" state="M"/>

</net>
